REMARK SMILES N#Cc1ccc(Cn2cncc2C[N@H+]2CCN(c3cccc(Cl)c3)C(=O)C2)cc1
REMARK SMILES IDX 12 1 8 2 11 3 9 4 10 5 13 6 14 7 15 8 16 9 27 10 17 11 25 12
REMARK SMILES IDX 26 14 18 15 24 16 19 17 22 18 20 19 21 20 23 21 7 22 6 23
REMARK SMILES IDX 5 24 28 25 4 26 29 27 3 28 2 29 1 30
REMARK H PARENT 14 13
ROOT
ATOM      1  C   UNL     1       1.726  -0.988   0.906  1.00  0.00     0.093 A 
ATOM      2  N   UNL     1       2.476  -1.494  -0.095  1.00  0.00    -0.325 N 
ATOM      3  C   UNL     1       1.744  -1.885   1.952  1.00  0.00     0.140 A 
ATOM      4  C   UNL     1       2.942  -2.670   0.372  1.00  0.00     0.200 A 
ATOM      5  N   UNL     1       2.510  -2.943   1.621  1.00  0.00    -0.245 NA
ENDROOT
BRANCH   1   6
ATOM      6  C   UNL     1       0.959   0.310   0.880  1.00  0.00     0.319 C 
BRANCH   6   7
ATOM      7  N   UNL     1      -0.503   0.086   0.780  1.00  0.00    -0.321 N 
ATOM      8  C   UNL     1      -1.220   1.362   0.990  1.00  0.00     0.285 C 
ATOM      9  C   UNL     1      -2.730   1.122   1.104  1.00  0.00     0.187 C 
ATOM     10  C   UNL     1      -0.861  -0.483  -0.538  1.00  0.00     0.364 C 
ATOM     11  N   UNL     1      -3.235   0.298  -0.001  1.00  0.00    -0.302 N 
ATOM     12  C   UNL     1      -2.350  -0.591  -0.711  1.00  0.00     0.282 C 
ATOM     13  H   UNL     1      -0.789  -0.586   1.534  1.00  0.00     0.348 HD
ATOM     14  O   UNL     1      -2.808  -1.407  -1.557  1.00  0.00    -0.268 OA
BRANCH  11  15
ATOM     15  C   UNL     1      -4.656   0.232  -0.210  1.00  0.00     0.046 A 
ATOM     16  C   UNL     1      -5.366   1.381  -0.594  1.00  0.00     0.046 A 
ATOM     17  C   UNL     1      -5.350  -0.974  -0.015  1.00  0.00     0.026 A 
ATOM     18  C   UNL     1      -6.750   1.323  -0.788  1.00  0.00     0.043 A 
ATOM     19  C   UNL     1      -6.733  -1.029  -0.208  1.00  0.00     0.004 A 
ATOM     20  C   UNL     1      -7.433   0.117  -0.595  1.00  0.00     0.020 A 
ATOM     21  Cl  UNL     1      -7.630   2.761  -1.274  1.00  0.00    -0.084 Cl
ENDBRANCH  11  15
ENDBRANCH   6   7
ENDBRANCH   1   6
BRANCH   2  22
ATOM     22  C   UNL     1       2.797  -0.894  -1.392  1.00  0.00     0.159 C 
BRANCH  22  23
ATOM     23  C   UNL     1       3.880   0.141  -1.241  1.00  0.00    -0.028 A 
ATOM     24  C   UNL     1       3.624   1.493  -1.529  1.00  0.00     0.007 A 
ATOM     25  C   UNL     1       5.163  -0.239  -0.816  1.00  0.00     0.007 A 
ATOM     26  C   UNL     1       4.633   2.449  -1.380  1.00  0.00     0.020 A 
ATOM     27  C   UNL     1       6.171   0.718  -0.668  1.00  0.00     0.020 A 
ATOM     28  C   UNL     1       5.908   2.065  -0.948  1.00  0.00     0.052 A 
BRANCH  28  29
ATOM     29  C   UNL     1       6.946   3.050  -0.795  1.00  0.00     0.099 C 
ATOM     30  N   UNL     1       7.780   3.843  -0.672  1.00  0.00    -0.192 NA
ENDBRANCH  28  29
ENDBRANCH  22  23
ENDBRANCH   2  22
TORSDOF 6
