778
     RDKit          3D

 50 53  0  0  0  0  0  0  0  0999 V2000
   -1.2200    1.3617    0.9895 C   0  0  0  0  0  0  0  0  0  0  0  0
   -0.5028    0.0862    0.7802 N   0  0  0  0  0  4  0  0  0  0  0  0
    0.9587    0.3104    0.8800 C   0  0  0  0  0  0  0  0  0  0  0  0
   -0.8613   -0.4834   -0.5380 C   0  0  0  0  0  0  0  0  0  0  0  0
   -2.7299    1.1218    1.1039 C   0  0  0  0  0  0  0  0  0  0  0  0
   -3.2348    0.2980   -0.0008 N   0  0  0  0  0  0  0  0  0  0  0  0
   -2.3501   -0.5913   -0.7109 C   0  0  0  0  0  0  0  0  0  0  0  0
   -4.6560    0.2320   -0.2104 C   0  0  0  0  0  0  0  0  0  0  0  0
   -2.8083   -1.4071   -1.5566 O   0  0  0  0  0  0  0  0  0  0  0  0
   -5.3657    1.3810   -0.5939 C   0  0  0  0  0  0  0  0  0  0  0  0
   -5.3499   -0.9736   -0.0146 C   0  0  0  0  0  0  0  0  0  0  0  0
   -6.7505    1.3228   -0.7878 C   0  0  0  0  0  0  0  0  0  0  0  0
   -6.7333   -1.0291   -0.2083 C   0  0  0  0  0  0  0  0  0  0  0  0
   -7.4334    0.1173   -0.5946 C   0  0  0  0  0  0  0  0  0  0  0  0
   -7.6295    2.7607   -1.2743 Cl  0  0  0  0  0  0  0  0  0  0  0  0
    1.7261   -0.9882    0.9057 C   0  0  0  0  0  0  0  0  0  0  0  0
    2.4759   -1.4936   -0.0948 N   0  0  0  0  0  0  0  0  0  0  0  0
    1.7441   -1.8846    1.9520 C   0  0  0  0  0  0  0  0  0  0  0  0
    2.7968   -0.8941   -1.3917 C   0  0  0  0  0  0  0  0  0  0  0  0
    2.9418   -2.6701    0.3716 C   0  0  0  0  0  0  0  0  0  0  0  0
    2.5103   -2.9433    1.6211 N   0  0  0  0  0  0  0  0  0  0  0  0
    3.8800    0.1413   -1.2411 C   0  0  0  0  0  0  0  0  0  0  0  0
    3.6240    1.4926   -1.5290 C   0  0  0  0  0  0  0  0  0  0  0  0
    5.1635   -0.2393   -0.8157 C   0  0  0  0  0  0  0  0  0  0  0  0
    4.6327    2.4493   -1.3800 C   0  0  0  0  0  0  0  0  0  0  0  0
    6.1714    0.7182   -0.6678 C   0  0  0  0  0  0  0  0  0  0  0  0
    5.9077    2.0646   -0.9475 C   0  0  0  0  0  0  0  0  0  0  0  0
    6.9456    3.0502   -0.7947 C   0  0  0  0  0  0  0  0  0  0  0  0
    7.7801    3.8426   -0.6719 N   0  0  0  0  0  0  0  0  0  0  0  0
   -0.8833    1.8505    1.9315 H   0  0  0  0  0  0  0  0  0  0  0  0
   -1.0191    2.0675    0.1508 H   0  0  0  0  0  0  0  0  0  0  0  0
   -0.7889   -0.5857    1.5335 H   0  0  0  0  0  0  0  0  0  0  0  0
    1.3118    0.9605    0.0527 H   0  0  0  0  0  0  0  0  0  0  0  0
    1.1994    0.8451    1.8261 H   0  0  0  0  0  0  0  0  0  0  0  0
   -0.4217   -1.4999   -0.6462 H   0  0  0  0  0  0  0  0  0  0  0  0
   -0.4669    0.1538   -1.3609 H   0  0  0  0  0  0  0  0  0  0  0  0
   -2.9459    0.6055    2.0644 H   0  0  0  0  0  0  0  0  0  0  0  0
   -3.2462    2.1057    1.1200 H   0  0  0  0  0  0  0  0  0  0  0  0
   -4.8404    2.3146   -0.7523 H   0  0  0  0  0  0  0  0  0  0  0  0
   -4.8195   -1.8648    0.2966 H   0  0  0  0  0  0  0  0  0  0  0  0
   -7.2635   -1.9603   -0.0559 H   0  0  0  0  0  0  0  0  0  0  0  0
   -8.5047    0.0677   -0.7428 H   0  0  0  0  0  0  0  0  0  0  0  0
    1.2306   -1.7762    2.8982 H   0  0  0  0  0  0  0  0  0  0  0  0
    3.1459   -1.6812   -2.0951 H   0  0  0  0  0  0  0  0  0  0  0  0
    1.8798   -0.4561   -1.8390 H   0  0  0  0  0  0  0  0  0  0  0  0
    3.5957   -3.3258   -0.1889 H   0  0  0  0  0  0  0  0  0  0  0  0
    2.6454    1.8077   -1.8688 H   0  0  0  0  0  0  0  0  0  0  0  0
    5.3831   -1.2771   -0.5981 H   0  0  0  0  0  0  0  0  0  0  0  0
    4.4186    3.4878   -1.6025 H   0  0  0  0  0  0  0  0  0  0  0  0
    7.1552    0.4088   -0.3356 H   0  0  0  0  0  0  0  0  0  0  0  0
  1  2  1  0
  2  3  1  0
  2  4  1  0
  1  5  1  0
  5  6  1  0
  7  6  1  0
  6  8  1  0
  4  7  1  0
  7  9  2  0
  8 10  2  0
  8 11  1  0
 10 12  1  0
 11 13  2  0
 12 14  2  0
 12 15  1  0
 13 14  1  0
  3 16  1  0
 16 17  1  0
 16 18  2  0
 17 19  1  0
 17 20  1  0
 18 21  1  0
 19 22  1  0
 20 21  2  0
 22 23  2  0
 22 24  1  0
 23 25  1  0
 24 26  2  0
 25 27  2  0
 26 27  1  0
 27 28  1  0
 28 29  3  0
  1 30  1  0
  1 31  1  0
  2 32  1  0
  3 33  1  0
  3 34  1  0
  4 35  1  0
  4 36  1  0
  5 37  1  0
  5 38  1  0
 10 39  1  0
 11 40  1  0
 13 41  1  0
 14 42  1  0
 18 43  1  0
 19 44  1  0
 19 45  1  0
 20 46  1  0
 23 47  1  0
 24 48  1  0
 25 49  1  0
 26 50  1  0
M  CHG  1   2   1
M  END
>  <model_server_result.job_id>  (1) 
w4AEw7ZQwrwZw6xbEVEzwp

>  <model_server_result.datetime_utc>  (1) 
2021-02-11 18:48:10

>  <model_server_result.server_version>  (1) 
0.9.6

>  <model_server_result.query_name>  (1) 
ligand

>  <model_server_result.source_id>  (1) 
pdb-bcif

>  <model_server_result.entry_id>  (1) 
1s63

>  <model_server_params.name>  (1) 
atom_site

>  <model_server_params.value>  (1) 
{"label_asym_id":"F","auth_seq_id":3012}

>  <model_server_stats.io_time_ms>  (1) 
3

>  <model_server_stats.parse_time_ms>  (1) 
28

>  <model_server_stats.create_model_time_ms>  (1) 
8

>  <model_server_stats.query_time_ms>  (1) 
193

>  <model_server_stats.encode_time_ms>  (1) 
0

>  <model_server_stats.element_count>  (1) 
29

>  <ScrubInfo>  (1) 
{"isomerGroup": 0, "isomerId": 0, "confId": 0, "nr_conformers:": 1, "nr_isomers:": 1}

$$$$
