MODEL 1
REMARK VINA RESULT:   -14.723      0.000      0.000
REMARK INTER + INTRA:         -17.949
REMARK INTER:                 -16.811
REMARK INTRA:                  -1.138
REMARK CONF_INDEPENDENT:        2.088
REMARK UNBOUND:                -1.138
REMARK SMILES Cc1ccc(NC(=O)c2ccc(CN3CC[NH+](C)CC3)cc2)cc1Nc1nccc(-c2cccnc2)n1
REMARK SMILES IDX 6 1 7 2 8 3 5 5 24 6 2 7 23 8 3 9 4 10 1 11 25 12 26 14
REMARK SMILES IDX 30 15 29 16 37 17 28 18 27 19 31 20 33 21 32 22 34 23 35 24
REMARK SMILES IDX 36 25 9 26 10 27 22 28 11 29 21 30 12 31 13 32 14 33 15 34
REMARK SMILES IDX 20 35 16 36 19 37 17 38 18 39
REMARK H PARENT 6 4 25 13 17 40
ROOT
ATOM      1  N   UNL     1      16.690  52.022  14.709  1.00  0.00    -0.322 N 
ATOM      2  C   UNL     1      15.682  52.002  15.658  1.00  0.00     0.255 C 
ATOM      3  O   UNL     1      14.841  52.879  15.792  1.00  0.00    -0.269 OA
ATOM      4  H   UNL     1      17.441  51.328  14.832  1.00  0.00     0.170 HD
ENDROOT
BRANCH   1   5
ATOM      5  C   UNL     1      16.817  52.896  13.569  1.00  0.00     0.043 A 
ATOM      6  C   UNL     1      16.036  54.772  12.108  1.00  0.00     0.046 A 
ATOM      7  C   UNL     1      17.189  54.581  11.220  1.00  0.00    -0.027 A 
ATOM      8  C   UNL     1      15.863  53.947  13.249  1.00  0.00     0.052 A 
ATOM      9  C   UNL     1      18.128  53.545  11.542  1.00  0.00     0.008 A 
ATOM     10  C   UNL     1      17.938  52.716  12.707  1.00  0.00     0.026 A 
ATOM     11  C   UNL     1      17.440  55.435   9.956  1.00  0.00     0.046 C 
BRANCH   6  12
ATOM     12  N   UNL     1      15.089  55.765  11.849  1.00  0.00    -0.324 N 
ATOM     13  H   UNL     1      14.276  55.551  11.253  1.00  0.00     0.170 HD
BRANCH  12  14
ATOM     14  C   UNL     1      15.231  57.037  12.382  1.00  0.00     0.227 A 
ATOM     15  C   UNL     1      14.263  59.183  12.744  1.00  0.00     0.077 A 
ATOM     16  C   UNL     1      15.448  59.630  13.418  1.00  0.00     0.049 A 
ATOM     17  N   UNL     1      14.201  57.898  12.253  1.00  0.00    -0.213 NA
ATOM     18  C   UNL     1      16.511  58.708  13.542  1.00  0.00     0.117 A 
ATOM     19  N   UNL     1      16.388  57.436  13.026  1.00  0.00    -0.221 NA
BRANCH  15  20
ATOM     20  C   UNL     1      13.055  60.042  12.531  1.00  0.00     0.019 A 
ATOM     21  C   UNL     1      11.700  62.132  12.928  1.00  0.00     0.021 A 
ATOM     22  C   UNL     1      12.886  61.342  13.168  1.00  0.00     0.013 A 
ATOM     23  C   UNL     1      10.693  61.601  12.048  1.00  0.00     0.111 A 
ATOM     24  N   UNL     1      10.868  60.349  11.440  1.00  0.00    -0.264 NA
ATOM     25  C   UNL     1      11.999  59.567  11.650  1.00  0.00     0.121 A 
ENDBRANCH  15  20
ENDBRANCH  12  14
ENDBRANCH   6  12
ENDBRANCH   1   5
BRANCH   2  26
ATOM     26  C   UNL     1      15.604  50.848  16.605  1.00  0.00     0.040 A 
ATOM     27  C   UNL     1      14.361  50.525  17.309  1.00  0.00     0.014 A 
ATOM     28  C   UNL     1      16.788  50.048  16.832  1.00  0.00     0.014 A 
ATOM     29  C   UNL     1      14.318  49.417  18.230  1.00  0.00     0.006 A 
ATOM     30  C   UNL     1      16.742  48.962  17.735  1.00  0.00     0.006 A 
ATOM     31  C   UNL     1      15.524  48.622  18.451  1.00  0.00    -0.034 A 
BRANCH  31  32
ATOM     32  C   UNL     1      15.575  47.435  19.431  1.00  0.00     0.120 C 
BRANCH  32  33
ATOM     33  N   UNL     1      16.809  47.286  20.259  1.00  0.00    -0.288 NA
ATOM     34  C   UNL     1      16.966  48.460  21.194  1.00  0.00     0.146 C 
ATOM     35  C   UNL     1      16.812  45.977  21.054  1.00  0.00     0.146 C 
ATOM     36  C   UNL     1      18.256  48.334  22.051  1.00  0.00     0.277 C 
ATOM     37  C   UNL     1      18.120  45.827  21.898  1.00  0.00     0.277 C 
ATOM     38  N   UNL     1      18.261  47.028  22.833  1.00  0.00    -0.335 N 
ATOM     39  C   UNL     1      19.459  46.862  23.669  1.00  0.00     0.332 C 
ATOM     40  H   UNL     1      17.448  47.076  23.463  1.00  0.00     0.347 HD
ENDBRANCH  32  33
ENDBRANCH  31  32
ENDBRANCH   2  26
TORSDOF 7
ENDMDL
MODEL 2
REMARK VINA RESULT:   -14.634      0.862      1.051
REMARK INTER + INTRA:         -17.777
REMARK INTER:                 -16.722
REMARK INTRA:                  -1.055
REMARK CONF_INDEPENDENT:        2.088
REMARK UNBOUND:                -1.055
REMARK SMILES Cc1ccc(NC(=O)c2ccc(CN3CC[NH+](C)CC3)cc2)cc1Nc1nccc(-c2cccnc2)n1
REMARK SMILES IDX 6 1 7 2 8 3 5 5 24 6 2 7 23 8 3 9 4 10 1 11 25 12 26 14
REMARK SMILES IDX 30 15 29 16 37 17 28 18 27 19 31 20 33 21 32 22 34 23 35 24
REMARK SMILES IDX 36 25 9 26 10 27 22 28 11 29 21 30 12 31 13 32 14 33 15 34
REMARK SMILES IDX 20 35 16 36 19 37 17 38 18 39
REMARK H PARENT 6 4 25 13 17 40
ROOT
ATOM      1  N   UNL     1      16.691  52.075  14.527  1.00  0.00    -0.322 N 
ATOM      2  C   UNL     1      15.720  51.984  15.512  1.00  0.00     0.255 C 
ATOM      3  O   UNL     1      14.837  52.810  15.690  1.00  0.00    -0.269 OA
ATOM      4  H   UNL     1      17.483  51.422  14.612  1.00  0.00     0.170 HD
ENDROOT
BRANCH   1   5
ATOM      5  C   UNL     1      16.728  52.971  13.399  1.00  0.00     0.043 A 
ATOM      6  C   UNL     1      15.828  54.868  12.036  1.00  0.00     0.046 A 
ATOM      7  C   UNL     1      16.914  54.703  11.062  1.00  0.00    -0.027 A 
ATOM      8  C   UNL     1      15.746  54.020  13.170  1.00  0.00     0.052 A 
ATOM      9  C   UNL     1      17.881  53.668  11.294  1.00  0.00     0.008 A 
ATOM     10  C   UNL     1      17.782  52.816  12.452  1.00  0.00     0.026 A 
ATOM     11  C   UNL     1      17.065  55.583   9.799  1.00  0.00     0.046 C 
BRANCH   6  12
ATOM     12  N   UNL     1      14.859  55.859  11.867  1.00  0.00    -0.324 N 
ATOM     13  H   UNL     1      13.994  55.643  11.350  1.00  0.00     0.170 HD
BRANCH  12  14
ATOM     14  C   UNL     1      15.047  57.131  12.385  1.00  0.00     0.227 A 
ATOM     15  C   UNL     1      14.161  59.318  12.712  1.00  0.00     0.077 A 
ATOM     16  C   UNL     1      15.357  59.727  13.389  1.00  0.00     0.049 A 
ATOM     17  N   UNL     1      14.052  58.030  12.237  1.00  0.00    -0.213 NA
ATOM     18  C   UNL     1      16.383  58.766  13.532  1.00  0.00     0.117 A 
ATOM     19  N   UNL     1      16.214  57.494  13.031  1.00  0.00    -0.221 NA
BRANCH  15  20
ATOM     20  C   UNL     1      12.989  60.220  12.480  1.00  0.00     0.019 A 
ATOM     21  C   UNL     1      11.722  62.374  12.826  1.00  0.00     0.021 A 
ATOM     22  C   UNL     1      12.875  61.542  13.083  1.00  0.00     0.013 A 
ATOM     23  C   UNL     1      10.690  61.862  11.962  1.00  0.00     0.111 A 
ATOM     24  N   UNL     1      10.812  60.589  11.386  1.00  0.00    -0.264 NA
ATOM     25  C   UNL     1      11.911  59.766  11.614  1.00  0.00     0.121 A 
ENDBRANCH  15  20
ENDBRANCH  12  14
ENDBRANCH   6  12
ENDBRANCH   1   5
BRANCH   2  26
ATOM     26  C   UNL     1      15.742  50.814  16.441  1.00  0.00     0.040 A 
ATOM     27  C   UNL     1      14.611  50.528  17.328  1.00  0.00     0.014 A 
ATOM     28  C   UNL     1      16.911  49.961  16.467  1.00  0.00     0.014 A 
ATOM     29  C   UNL     1      14.665  49.402  18.228  1.00  0.00     0.006 A 
ATOM     30  C   UNL     1      16.959  48.858  17.349  1.00  0.00     0.006 A 
ATOM     31  C   UNL     1      15.855  48.554  18.243  1.00  0.00    -0.034 A 
BRANCH  31  32
ATOM     32  C   UNL     1      16.007  47.345  19.185  1.00  0.00     0.120 C 
BRANCH  32  33
ATOM     33  N   UNL     1      17.113  47.395  20.188  1.00  0.00    -0.288 NA
ATOM     34  C   UNL     1      18.455  47.392  19.498  1.00  0.00     0.146 C 
ATOM     35  C   UNL     1      16.998  48.612  21.110  1.00  0.00     0.146 C 
ATOM     36  C   UNL     1      19.621  47.422  20.525  1.00  0.00     0.277 C 
ATOM     37  C   UNL     1      18.149  48.636  22.167  1.00  0.00     0.277 C 
ATOM     38  N   UNL     1      19.499  48.628  21.447  1.00  0.00    -0.335 N 
ATOM     39  C   UNL     1      20.583  48.709  22.436  1.00  0.00     0.332 C 
ATOM     40  H   UNL     1      19.572  49.455  20.838  1.00  0.00     0.347 HD
ENDBRANCH  32  33
ENDBRANCH  31  32
ENDBRANCH   2  26
TORSDOF 7
ENDMDL
MODEL 3
REMARK VINA RESULT:   -13.121      1.152      1.877
REMARK INTER + INTRA:         -16.378
REMARK INTER:                 -15.209
REMARK INTRA:                  -1.168
REMARK CONF_INDEPENDENT:        2.088
REMARK UNBOUND:                -1.168
REMARK SMILES Cc1ccc(NC(=O)c2ccc(CN3CC[NH+](C)CC3)cc2)cc1Nc1nccc(-c2cccnc2)n1
REMARK SMILES IDX 6 1 7 2 8 3 5 5 24 6 2 7 23 8 3 9 4 10 1 11 25 12 26 14
REMARK SMILES IDX 30 15 29 16 37 17 28 18 27 19 31 20 33 21 32 22 34 23 35 24
REMARK SMILES IDX 36 25 9 26 10 27 22 28 11 29 21 30 12 31 13 32 14 33 15 34
REMARK SMILES IDX 20 35 16 36 19 37 17 38 18 39
REMARK H PARENT 6 4 25 13 17 40
ROOT
ATOM      1  N   UNL     1      16.771  52.597  14.618  1.00  0.00    -0.322 N 
ATOM      2  C   UNL     1      15.776  52.388  15.559  1.00  0.00     0.255 C 
ATOM      3  O   UNL     1      14.862  53.168  15.782  1.00  0.00    -0.269 OA
ATOM      4  H   UNL     1      17.582  51.964  14.669  1.00  0.00     0.170 HD
ENDROOT
BRANCH   1   5
ATOM      5  C   UNL     1      16.811  53.592  13.575  1.00  0.00     0.043 A 
ATOM      6  C   UNL     1      16.304  55.861  12.648  1.00  0.00     0.046 A 
ATOM      7  C   UNL     1      16.947  55.501  11.378  1.00  0.00    -0.027 A 
ATOM      8  C   UNL     1      16.242  54.924  13.711  1.00  0.00     0.052 A 
ATOM      9  C   UNL     1      17.508  54.187  11.251  1.00  0.00     0.008 A 
ATOM     10  C   UNL     1      17.438  53.248  12.342  1.00  0.00     0.026 A 
ATOM     11  C   UNL     1      17.046  56.465  10.172  1.00  0.00     0.046 C 
BRANCH   6  12
ATOM     12  N   UNL     1      15.741  57.125  12.833  1.00  0.00    -0.324 N 
ATOM     13  H   UNL     1      16.300  57.873  13.270  1.00  0.00     0.170 HD
BRANCH  12  14
ATOM     14  C   UNL     1      14.439  57.387  12.436  1.00  0.00     0.227 A 
ATOM     15  C   UNL     1      12.732  59.013  12.094  1.00  0.00     0.077 A 
ATOM     16  C   UNL     1      11.815  57.995  11.667  1.00  0.00     0.049 A 
ATOM     17  N   UNL     1      14.013  58.667  12.461  1.00  0.00    -0.213 NA
ATOM     18  C   UNL     1      12.286  56.663  11.649  1.00  0.00     0.117 A 
ATOM     19  N   UNL     1      13.580  56.381  12.032  1.00  0.00    -0.221 NA
BRANCH  15  20
ATOM     20  C   UNL     1      12.381  60.466  12.170  1.00  0.00     0.019 A 
ATOM     21  C   UNL     1      10.886  62.435  11.667  1.00  0.00     0.021 A 
ATOM     22  C   UNL     1      11.178  61.024  11.564  1.00  0.00     0.013 A 
ATOM     23  C   UNL     1      11.814  63.274  12.380  1.00  0.00     0.111 A 
ATOM     24  N   UNL     1      12.968  62.725  12.959  1.00  0.00    -0.264 NA
ATOM     25  C   UNL     1      13.274  61.371  12.878  1.00  0.00     0.121 A 
ENDBRANCH  15  20
ENDBRANCH  12  14
ENDBRANCH   6  12
ENDBRANCH   1   5
BRANCH   2  26
ATOM     26  C   UNL     1      15.810  51.140  16.381  1.00  0.00     0.040 A 
ATOM     27  C   UNL     1      17.022  50.321  16.470  1.00  0.00     0.014 A 
ATOM     28  C   UNL     1      14.614  50.735  17.089  1.00  0.00     0.014 A 
ATOM     29  C   UNL     1      17.022  49.113  17.256  1.00  0.00     0.006 A 
ATOM     30  C   UNL     1      14.618  49.551  17.859  1.00  0.00     0.006 A 
ATOM     31  C   UNL     1      15.805  48.717  17.960  1.00  0.00    -0.034 A 
BRANCH  31  32
ATOM     32  C   UNL     1      15.708  47.433  18.805  1.00  0.00     0.120 C 
BRANCH  32  33
ATOM     33  N   UNL     1      16.798  47.180  19.794  1.00  0.00    -0.288 NA
ATOM     34  C   UNL     1      17.099  48.431  20.582  1.00  0.00     0.146 C 
ATOM     35  C   UNL     1      16.457  46.029  20.744  1.00  0.00     0.146 C 
ATOM     36  C   UNL     1      18.247  48.196  21.603  1.00  0.00     0.277 C 
ATOM     37  C   UNL     1      17.618  45.764  21.757  1.00  0.00     0.277 C 
ATOM     38  N   UNL     1      17.910  47.045  22.541  1.00  0.00    -0.335 N 
ATOM     39  C   UNL     1      18.961  46.783  23.534  1.00  0.00     0.332 C 
ATOM     40  H   UNL     1      17.065  47.338  23.053  1.00  0.00     0.347 HD
ENDBRANCH  32  33
ENDBRANCH  31  32
ENDBRANCH   2  26
TORSDOF 7
ENDMDL
