MODEL 1
REMARK VINA RESULT:   -13.234      0.000      0.000
REMARK INTER + INTRA:         -19.105
REMARK INTER:                 -18.649
REMARK INTRA:                  -0.456
REMARK UNBOUND:                -0.456
REMARK SMILES Cc1ccc(NC(=O)c2ccc(CN3CC[NH+](C)CC3)cc2)cc1Nc1nccc(-c2cccnc2)n1
REMARK SMILES IDX 6 1 7 2 8 3 5 5 24 6 2 7 23 8 3 9 4 10 1 11 25 12 26 14
REMARK SMILES IDX 30 15 29 16 37 17 28 18 27 19 31 20 33 21 32 22 34 23 35 24
REMARK SMILES IDX 36 25 9 26 10 27 22 28 11 29 21 30 12 31 13 32 14 33 15 34
REMARK SMILES IDX 20 35 16 36 19 37 17 38 18 39
REMARK H PARENT 6 4 25 13 17 40
ROOT
ATOM      1  N   UNL     1      16.714  51.912  14.876  1.00  0.00    -0.322 N 
ATOM      2  C   UNL     1      15.686  51.716  15.784  1.00  0.00     0.255 C 
ATOM      3  O   UNL     1      14.708  52.441  15.889  1.00  0.00    -0.269 OA
ATOM      4  H   UNL     1      17.563  51.349  15.026  1.00  0.00     0.170 HD
ENDROOT
BRANCH   1   5
ATOM      5  C   UNL     1      16.739  52.808  13.746  1.00  0.00     0.043 A 
ATOM      6  C   UNL     1      15.819  54.696  12.386  1.00  0.00     0.046 A 
ATOM      7  C   UNL     1      16.902  54.539  11.408  1.00  0.00    -0.027 A 
ATOM      8  C   UNL     1      15.748  53.849  13.521  1.00  0.00     0.052 A 
ATOM      9  C   UNL     1      17.878  53.512  11.636  1.00  0.00     0.008 A 
ATOM     10  C   UNL     1      17.791  52.660  12.796  1.00  0.00     0.026 A 
ATOM     11  C   UNL     1      17.041  55.419  10.144  1.00  0.00     0.046 C 
BRANCH   6  12
ATOM     12  N   UNL     1      14.841  55.679  12.219  1.00  0.00    -0.324 N 
ATOM     13  H   UNL     1      13.925  55.424  11.823  1.00  0.00     0.170 HD
BRANCH  12  14
ATOM     14  C   UNL     1      15.089  56.994  12.580  1.00  0.00     0.227 A 
ATOM     15  C   UNL     1      14.262  59.222  12.743  1.00  0.00     0.077 A 
ATOM     16  C   UNL     1      15.517  59.675  13.270  1.00  0.00     0.049 A 
ATOM     17  N   UNL     1      14.096  57.894  12.420  1.00  0.00    -0.213 NA
ATOM     18  C   UNL     1      16.539  58.713  13.429  1.00  0.00     0.117 A 
ATOM     19  N   UNL     1      16.312  57.398  13.084  1.00  0.00    -0.221 NA
BRANCH  15  20
ATOM     20  C   UNL     1      13.086  60.120  12.513  1.00  0.00     0.019 A 
ATOM     21  C   UNL     1      11.825  62.280  12.841  1.00  0.00     0.021 A 
ATOM     22  C   UNL     1      12.982  61.453  13.095  1.00  0.00     0.013 A 
ATOM     23  C   UNL     1      10.780  61.753  12.003  1.00  0.00     0.111 A 
ATOM     24  N   UNL     1      10.892  60.470  11.448  1.00  0.00    -0.264 NA
ATOM     25  C   UNL     1      11.995  59.652  11.673  1.00  0.00     0.121 A 
ENDBRANCH  15  20
ENDBRANCH  12  14
ENDBRANCH   6  12
ENDBRANCH   1   5
BRANCH   2  26
ATOM     26  C   UNL     1      15.763  50.555  16.722  1.00  0.00     0.040 A 
ATOM     27  C   UNL     1      17.014  49.816  16.916  1.00  0.00     0.014 A 
ATOM     28  C   UNL     1      14.572  50.153  17.440  1.00  0.00     0.014 A 
ATOM     29  C   UNL     1      17.057  48.689  17.813  1.00  0.00     0.006 A 
ATOM     30  C   UNL     1      14.618  49.049  18.319  1.00  0.00     0.006 A 
ATOM     31  C   UNL     1      15.844  48.295  18.526  1.00  0.00    -0.034 A 
BRANCH  31  32
ATOM     32  C   UNL     1      15.792  47.092  19.487  1.00  0.00     0.120 C 
BRANCH  32  33
ATOM     33  N   UNL     1      17.058  46.722  20.188  1.00  0.00    -0.288 NA
ATOM     34  C   UNL     1      17.364  47.710  21.287  1.00  0.00     0.146 C 
ATOM     35  C   UNL     1      17.005  45.301  20.757  1.00  0.00     0.146 C 
ATOM     36  C   UNL     1      18.690  47.354  22.016  1.00  0.00     0.277 C 
ATOM     37  C   UNL     1      18.346  44.923  21.466  1.00  0.00     0.277 C 
ATOM     38  N   UNL     1      18.639  45.938  22.572  1.00  0.00    -0.335 N 
ATOM     39  C   UNL     1      19.868  45.552  23.280  1.00  0.00     0.332 C 
ATOM     40  H   UNL     1      17.871  45.934  23.259  1.00  0.00     0.347 HD
ENDBRANCH  32  33
ENDBRANCH  31  32
ENDBRANCH   2  26
TORSDOF 7
ENDMDL
MODEL 2
REMARK VINA RESULT:   -11.293      0.986      1.681
REMARK INTER + INTRA:         -16.369
REMARK INTER:                 -15.699
REMARK INTRA:                  -0.671
REMARK UNBOUND:                -0.456
REMARK SMILES Cc1ccc(NC(=O)c2ccc(CN3CC[NH+](C)CC3)cc2)cc1Nc1nccc(-c2cccnc2)n1
REMARK SMILES IDX 6 1 7 2 8 3 5 5 24 6 2 7 23 8 3 9 4 10 1 11 25 12 26 14
REMARK SMILES IDX 30 15 29 16 37 17 28 18 27 19 31 20 33 21 32 22 34 23 35 24
REMARK SMILES IDX 36 25 9 26 10 27 22 28 11 29 21 30 12 31 13 32 14 33 15 34
REMARK SMILES IDX 20 35 16 36 19 37 17 38 18 39
REMARK H PARENT 6 4 25 13 17 40
ROOT
ATOM      1  N   UNL     1      16.775  52.280  14.826  1.00  0.00    -0.322 N 
ATOM      2  C   UNL     1      15.729  52.027  15.698  1.00  0.00     0.255 C 
ATOM      3  O   UNL     1      14.766  52.763  15.853  1.00  0.00    -0.269 OA
ATOM      4  H   UNL     1      17.610  51.686  14.936  1.00  0.00     0.170 HD
ENDROOT
BRANCH   1   5
ATOM      5  C   UNL     1      16.839  53.272  13.782  1.00  0.00     0.043 A 
ATOM      6  C   UNL     1      16.389  55.551  12.851  1.00  0.00     0.046 A 
ATOM      7  C   UNL     1      17.020  55.173  11.581  1.00  0.00    -0.027 A 
ATOM      8  C   UNL     1      16.305  54.619  13.916  1.00  0.00     0.052 A 
ATOM      9  C   UNL     1      17.546  53.845  11.454  1.00  0.00     0.008 A 
ATOM     10  C   UNL     1      17.453  52.910  12.548  1.00  0.00     0.026 A 
ATOM     11  C   UNL     1      17.141  56.132  10.373  1.00  0.00     0.046 C 
BRANCH   6  12
ATOM     12  N   UNL     1      15.861  56.831  13.035  1.00  0.00    -0.324 N 
ATOM     13  H   UNL     1      16.422  57.550  13.515  1.00  0.00     0.170 HD
BRANCH  12  14
ATOM     14  C   UNL     1      14.589  57.145  12.581  1.00  0.00     0.227 A 
ATOM     15  C   UNL     1      12.960  58.836  12.180  1.00  0.00     0.077 A 
ATOM     16  C   UNL     1      12.029  57.858  11.696  1.00  0.00     0.049 A 
ATOM     17  N   UNL     1      14.209  58.439  12.603  1.00  0.00    -0.213 NA
ATOM     18  C   UNL     1      12.452  56.510  11.682  1.00  0.00     0.117 A 
ATOM     19  N   UNL     1      13.715  56.176  12.122  1.00  0.00    -0.221 NA
BRANCH  15  20
ATOM     20  C   UNL     1      12.658  60.300  12.260  1.00  0.00     0.019 A 
ATOM     21  C   UNL     1      13.299  62.692  12.742  1.00  0.00     0.021 A 
ATOM     22  C   UNL     1      13.642  61.289  12.683  1.00  0.00     0.013 A 
ATOM     23  C   UNL     1      11.964  63.084  12.376  1.00  0.00     0.111 A 
ATOM     24  N   UNL     1      11.026  62.123  11.969  1.00  0.00    -0.264 NA
ATOM     25  C   UNL     1      11.328  60.767  11.901  1.00  0.00     0.121 A 
ENDBRANCH  15  20
ENDBRANCH  12  14
ENDBRANCH   6  12
ENDBRANCH   1   5
BRANCH   2  26
ATOM     26  C   UNL     1      15.766  50.785  16.529  1.00  0.00     0.040 A 
ATOM     27  C   UNL     1      14.576  50.313  17.243  1.00  0.00     0.014 A 
ATOM     28  C   UNL     1      17.007  50.048  16.633  1.00  0.00     0.014 A 
ATOM     29  C   UNL     1      14.643  49.122  18.051  1.00  0.00     0.006 A 
ATOM     30  C   UNL     1      17.068  48.880  17.425  1.00  0.00     0.006 A 
ATOM     31  C   UNL     1      15.905  48.392  18.148  1.00  0.00    -0.034 A 
BRANCH  31  32
ATOM     32  C   UNL     1      16.074  47.123  19.004  1.00  0.00     0.120 C 
BRANCH  32  33
ATOM     33  N   UNL     1      17.245  47.073  19.929  1.00  0.00    -0.288 NA
ATOM     34  C   UNL     1      17.189  48.211  20.918  1.00  0.00     0.146 C 
ATOM     35  C   UNL     1      17.335  45.736  20.671  1.00  0.00     0.146 C 
ATOM     36  C   UNL     1      18.411  48.190  21.878  1.00  0.00     0.277 C 
ATOM     37  C   UNL     1      18.578  45.692  21.617  1.00  0.00     0.277 C 
ATOM     38  N   UNL     1      18.503  46.856  22.607  1.00  0.00    -0.335 N 
ATOM     39  C   UNL     1      19.640  46.785  23.536  1.00  0.00     0.332 C 
ATOM     40  H   UNL     1      17.640  46.782  23.166  1.00  0.00     0.347 HD
ENDBRANCH  32  33
ENDBRANCH  31  32
ENDBRANCH   2  26
TORSDOF 7
ENDMDL
MODEL 3
REMARK VINA RESULT:   -11.281      3.044     12.414
REMARK INTER + INTRA:         -16.352
REMARK INTER:                 -15.395
REMARK INTRA:                  -0.957
REMARK UNBOUND:                -0.456
REMARK SMILES Cc1ccc(NC(=O)c2ccc(CN3CC[NH+](C)CC3)cc2)cc1Nc1nccc(-c2cccnc2)n1
REMARK SMILES IDX 6 1 7 2 8 3 5 5 24 6 2 7 23 8 3 9 4 10 1 11 25 12 26 14
REMARK SMILES IDX 30 15 29 16 37 17 28 18 27 19 31 20 33 21 32 22 34 23 35 24
REMARK SMILES IDX 36 25 9 26 10 27 22 28 11 29 21 30 12 31 13 32 14 33 15 34
REMARK SMILES IDX 20 35 16 36 19 37 17 38 18 39
REMARK H PARENT 6 4 25 13 17 40
ROOT
ATOM      1  N   UNL     1      16.136  51.990  15.777  1.00  0.00    -0.322 N 
ATOM      2  C   UNL     1      15.646  52.224  14.502  1.00  0.00     0.255 C 
ATOM      3  O   UNL     1      15.189  51.360  13.768  1.00  0.00    -0.269 OA
ATOM      4  H   UNL     1      16.667  52.761  16.205  1.00  0.00     0.170 HD
ENDROOT
BRANCH   1   5
ATOM      5  C   UNL     1      15.992  50.799  16.577  1.00  0.00     0.043 A 
ATOM      6  C   UNL     1      16.875  48.704  17.622  1.00  0.00     0.046 A 
ATOM      7  C   UNL     1      15.557  48.419  18.201  1.00  0.00    -0.027 A 
ATOM      8  C   UNL     1      17.077  49.865  16.832  1.00  0.00     0.052 A 
ATOM      9  C   UNL     1      14.491  49.346  17.948  1.00  0.00     0.008 A 
ATOM     10  C   UNL     1      14.714  50.522  17.144  1.00  0.00     0.026 A 
ATOM     11  C   UNL     1      15.258  47.171  19.064  1.00  0.00     0.046 C 
BRANCH   6  12
ATOM     12  N   UNL     1      17.952  47.840  17.834  1.00  0.00    -0.324 N 
ATOM     13  H   UNL     1      18.009  46.957  17.307  1.00  0.00     0.170 HD
BRANCH  12  14
ATOM     14  C   UNL     1      18.945  48.158  18.748  1.00  0.00     0.227 A 
ATOM     15  C   UNL     1      20.960  49.349  19.190  1.00  0.00     0.077 A 
ATOM     16  C   UNL     1      20.998  48.836  20.529  1.00  0.00     0.049 A 
ATOM     17  N   UNL     1      19.930  48.991  18.350  1.00  0.00    -0.213 NA
ATOM     18  C   UNL     1      19.955  47.968  20.921  1.00  0.00     0.117 A 
ATOM     19  N   UNL     1      18.953  47.644  20.031  1.00  0.00    -0.221 NA
BRANCH  15  20
ATOM     20  C   UNL     1      21.994  50.275  18.627  1.00  0.00     0.019 A 
ATOM     21  C   UNL     1      24.226  50.745  17.550  1.00  0.00     0.021 A 
ATOM     22  C   UNL     1      23.263  49.809  18.083  1.00  0.00     0.013 A 
ATOM     23  C   UNL     1      23.901  52.146  17.574  1.00  0.00     0.111 A 
ATOM     24  N   UNL     1      22.675  52.583  18.099  1.00  0.00    -0.264 NA
ATOM     25  C   UNL     1      21.728  51.706  18.617  1.00  0.00     0.121 A 
ENDBRANCH  15  20
ENDBRANCH  12  14
ENDBRANCH   6  12
ENDBRANCH   1   5
BRANCH   2  26
ATOM     26  C   UNL     1      15.682  53.616  13.959  1.00  0.00     0.040 A 
ATOM     27  C   UNL     1      16.951  54.319  13.755  1.00  0.00     0.014 A 
ATOM     28  C   UNL     1      14.434  54.277  13.642  1.00  0.00     0.014 A 
ATOM     29  C   UNL     1      16.956  55.668  13.246  1.00  0.00     0.006 A 
ATOM     30  C   UNL     1      14.443  55.598  13.142  1.00  0.00     0.006 A 
ATOM     31  C   UNL     1      15.687  56.321  12.935  1.00  0.00    -0.034 A 
BRANCH  31  32
ATOM     32  C   UNL     1      15.597  57.766  12.408  1.00  0.00     0.120 C 
BRANCH  32  33
ATOM     33  N   UNL     1      14.325  58.507  12.657  1.00  0.00    -0.288 NA
ATOM     34  C   UNL     1      14.611  59.898  13.166  1.00  0.00     0.146 C 
ATOM     35  C   UNL     1      13.445  58.575  11.405  1.00  0.00     0.146 C 
ATOM     36  C   UNL     1      13.299  60.679  13.451  1.00  0.00     0.277 C 
ATOM     37  C   UNL     1      12.108  59.334  11.689  1.00  0.00     0.277 C 
ATOM     38  N   UNL     1      12.423  60.738  12.208  1.00  0.00    -0.335 N 
ATOM     39  C   UNL     1      11.168  61.474  12.421  1.00  0.00     0.332 C 
ATOM     40  H   UNL     1      12.969  61.254  11.503  1.00  0.00     0.347 HD
ENDBRANCH  32  33
ENDBRANCH  31  32
ENDBRANCH   2  26
TORSDOF 7
ENDMDL
MODEL 4
REMARK VINA RESULT:   -11.146      3.813     12.238
REMARK INTER + INTRA:         -16.162
REMARK INTER:                 -15.881
REMARK INTRA:                  -0.281
REMARK UNBOUND:                -0.456
REMARK SMILES Cc1ccc(NC(=O)c2ccc(CN3CC[NH+](C)CC3)cc2)cc1Nc1nccc(-c2cccnc2)n1
REMARK SMILES IDX 6 1 7 2 8 3 5 5 24 6 2 7 23 8 3 9 4 10 1 11 25 12 26 14
REMARK SMILES IDX 30 15 29 16 37 17 28 18 27 19 31 20 33 21 32 22 34 23 35 24
REMARK SMILES IDX 36 25 9 26 10 27 22 28 11 29 21 30 12 31 13 32 14 33 15 34
REMARK SMILES IDX 20 35 16 36 19 37 17 38 18 39
REMARK H PARENT 6 4 25 13 17 40
ROOT
ATOM      1  N   UNL     1      16.680  50.625  15.917  1.00  0.00    -0.322 N 
ATOM      2  C   UNL     1      15.712  51.614  15.849  1.00  0.00     0.255 C 
ATOM      3  O   UNL     1      14.727  51.668  16.570  1.00  0.00    -0.269 OA
ATOM      4  H   UNL     1      17.344  50.588  15.130  1.00  0.00     0.170 HD
ENDROOT
BRANCH   1   5
ATOM      5  C   UNL     1      16.872  49.642  16.954  1.00  0.00     0.043 A 
ATOM      6  C   UNL     1      18.141  48.651  18.870  1.00  0.00     0.046 A 
ATOM      7  C   UNL     1      17.144  47.580  18.996  1.00  0.00    -0.027 A 
ATOM      8  C   UNL     1      18.000  49.650  17.873  1.00  0.00     0.052 A 
ATOM      9  C   UNL     1      16.033  47.579  18.088  1.00  0.00     0.008 A 
ATOM     10  C   UNL     1      15.904  48.603  17.081  1.00  0.00     0.026 A 
ATOM     11  C   UNL     1      17.234  46.454  20.051  1.00  0.00     0.046 C 
BRANCH   6  12
ATOM     12  N   UNL     1      19.243  48.707  19.726  1.00  0.00    -0.324 N 
ATOM     13  H   UNL     1      19.111  48.977  20.711  1.00  0.00     0.170 HD
BRANCH  12  14
ATOM     14  C   UNL     1      20.515  48.404  19.264  1.00  0.00     0.227 A 
ATOM     15  C   UNL     1      22.603  49.214  18.452  1.00  0.00     0.077 A 
ATOM     16  C   UNL     1      23.093  47.874  18.305  1.00  0.00     0.049 A 
ATOM     17  N   UNL     1      21.329  49.427  18.929  1.00  0.00    -0.213 NA
ATOM     18  C   UNL     1      22.221  46.821  18.664  1.00  0.00     0.117 A 
ATOM     19  N   UNL     1      20.956  47.100  19.133  1.00  0.00    -0.221 NA
BRANCH  15  20
ATOM     20  C   UNL     1      23.404  50.432  18.111  1.00  0.00     0.019 A 
ATOM     21  C   UNL     1      25.038  51.703  16.669  1.00  0.00     0.021 A 
ATOM     22  C   UNL     1      24.287  50.502  16.954  1.00  0.00     0.013 A 
ATOM     23  C   UNL     1      24.893  52.825  17.559  1.00  0.00     0.111 A 
ATOM     24  N   UNL     1      24.038  52.747  18.669  1.00  0.00    -0.264 NA
ATOM     25  C   UNL     1      23.302  51.605  18.967  1.00  0.00     0.121 A 
ENDBRANCH  15  20
ENDBRANCH  12  14
ENDBRANCH   6  12
ENDBRANCH   1   5
BRANCH   2  26
ATOM     26  C   UNL     1      15.851  52.690  14.821  1.00  0.00     0.040 A 
ATOM     27  C   UNL     1      14.780  53.663  14.591  1.00  0.00     0.014 A 
ATOM     28  C   UNL     1      17.065  52.758  14.037  1.00  0.00     0.014 A 
ATOM     29  C   UNL     1      14.932  54.681  13.582  1.00  0.00     0.006 A 
ATOM     30  C   UNL     1      17.212  53.758  13.050  1.00  0.00     0.006 A 
ATOM     31  C   UNL     1      16.163  54.732  12.796  1.00  0.00    -0.034 A 
BRANCH  31  32
ATOM     32  C   UNL     1      16.403  55.771  11.685  1.00  0.00     0.120 C 
BRANCH  32  33
ATOM     33  N   UNL     1      15.769  57.112  11.853  1.00  0.00    -0.288 NA
ATOM     34  C   UNL     1      14.273  56.977  11.999  1.00  0.00     0.146 C 
ATOM     35  C   UNL     1      16.347  57.875  13.049  1.00  0.00     0.146 C 
ATOM     36  C   UNL     1      13.591  58.365  12.155  1.00  0.00     0.277 C 
ATOM     37  C   UNL     1      15.689  59.285  13.198  1.00  0.00     0.277 C 
ATOM     38  N   UNL     1      14.174  59.125  13.338  1.00  0.00    -0.335 N 
ATOM     39  C   UNL     1      13.558  60.445  13.536  1.00  0.00     0.332 C 
ATOM     40  H   UNL     1      13.961  58.555  14.170  1.00  0.00     0.347 HD
ENDBRANCH  32  33
ENDBRANCH  31  32
ENDBRANCH   2  26
TORSDOF 7
ENDMDL
