REMARK SMILES O=C1c2ccccc2N[C@H](c2ccccc2F)N1c1ccccc1
REMARK SMILES IDX 10 1 9 2 8 3 7 4 6 5 5 6 4 7 3 8 2 9 1 10 18 11 11 13 16 14
REMARK SMILES IDX 15 15 14 16 12 17 13 18 17 19 19 20 20 21 24 22 21 23 23 24
REMARK SMILES IDX 22 25
REMARK H PARENT 9 12
ROOT
ATOM      1  C   UNL     1      -0.142   0.198  -1.114  1.00  0.00     0.219 C 
ATOM      2  N   UNL     1      -0.782   1.505  -1.299  1.00  0.00    -0.360 N 
ATOM      3  C   UNL     1      -0.598   2.624  -0.423  1.00  0.00     0.049 A 
ATOM      4  C   UNL     1      -1.380   3.777  -0.585  1.00  0.00     0.026 A 
ATOM      5  C   UNL     1      -1.204   4.873   0.264  1.00  0.00     0.002 A 
ATOM      6  C   UNL     1      -0.244   4.825   1.276  1.00  0.00     0.001 A 
ATOM      7  C   UNL     1       0.542   3.682   1.441  1.00  0.00     0.016 A 
ATOM      8  C   UNL     1       0.368   2.575   0.590  1.00  0.00     0.063 A 
ATOM      9  C   UNL     1       1.187   1.363   0.731  1.00  0.00     0.262 C 
ATOM     10  O   UNL     1       2.120   1.334   1.581  1.00  0.00    -0.269 OA
ATOM     11  N   UNL     1       0.942   0.219  -0.111  1.00  0.00    -0.283 N 
ATOM     12  H   UNL     1      -1.469   1.593  -2.083  1.00  0.00     0.163 HD
ENDROOT
BRANCH   1  13
ATOM     13  C   UNL     1      -1.187  -0.832  -0.733  1.00  0.00     0.031 A 
ATOM     14  C   UNL     1      -1.922  -0.716   0.465  1.00  0.00     0.130 A 
ATOM     15  C   UNL     1      -2.866  -1.689   0.808  1.00  0.00     0.039 A 
ATOM     16  C   UNL     1      -3.086  -2.783  -0.032  1.00  0.00     0.003 A 
ATOM     17  C   UNL     1      -1.415  -1.940  -1.569  1.00  0.00     0.011 A 
ATOM     18  C   UNL     1      -2.361  -2.908  -1.218  1.00  0.00     0.001 A 
ATOM     19  F   UNL     1      -1.723   0.330   1.305  1.00  0.00    -0.207 F 
ENDBRANCH   1  13
BRANCH  11  20
ATOM     20  C   UNL     1       1.722  -0.977   0.077  1.00  0.00     0.046 A 
ATOM     21  C   UNL     1       2.476  -1.508  -0.982  1.00  0.00     0.026 A 
ATOM     22  C   UNL     1       1.704  -1.646   1.312  1.00  0.00     0.026 A 
ATOM     23  C   UNL     1       3.208  -2.686  -0.804  1.00  0.00     0.002 A 
ATOM     24  C   UNL     1       2.436  -2.824   1.486  1.00  0.00     0.002 A 
ATOM     25  C   UNL     1       3.188  -3.344   0.429  1.00  0.00     0.000 A 
ENDBRANCH  11  20
TORSDOF 2
