P59
     RDKit          3D

 39 42  0  0  1  0  0  0  0  0999 V2000
   -1.2351    1.2243    1.3043 F   0  0  0  0  0  0  0  0  0  0  0  0
   -0.3792    1.9821    0.5745 C   0  0  0  0  0  0  0  0  0  0  0  0
   -0.0379    3.2559    1.0404 C   0  0  0  0  0  0  0  0  0  0  0  0
    0.8490    4.0552    0.3162 C   0  0  0  0  0  0  0  0  0  0  0  0
    1.3995    3.5832   -0.8768 C   0  0  0  0  0  0  0  0  0  0  0  0
    1.0636    2.3115   -1.3493 C   0  0  0  0  0  0  0  0  0  0  0  0
    0.1686    1.4975   -0.6312 C   0  0  0  0  0  0  0  0  0  0  0  0
   -0.1677    0.1120   -1.1437 C   0  0  2  0  0  0  0  0  0  0  0  0
   -1.6046    0.0275   -1.4298 N   0  0  0  0  0  0  0  0  0  0  0  0
   -2.5326   -0.7572   -0.6710 C   0  0  0  0  0  0  0  0  0  0  0  0
   -3.9102   -0.6436   -0.9155 C   0  0  0  0  0  0  0  0  0  0  0  0
   -4.8213   -1.4072   -0.1815 C   0  0  0  0  0  0  0  0  0  0  0  0
   -4.3628   -2.2905    0.7978 C   0  0  0  0  0  0  0  0  0  0  0  0
   -2.9926   -2.4126    1.0434 C   0  0  0  0  0  0  0  0  0  0  0  0
   -2.0711   -1.6451    0.3082 C   0  0  0  0  0  0  0  0  0  0  0  0
   -0.6237   -1.7592    0.5361 C   0  0  0  0  0  0  0  0  0  0  0  0
   -0.1847   -2.6154    1.3532 O   0  0  0  0  0  0  0  0  0  0  0  0
    0.2935   -0.9124   -0.1842 N   0  0  0  0  0  0  0  0  0  0  0  0
    1.7049   -1.0044    0.0897 C   0  0  0  0  0  0  0  0  0  0  0  0
    2.1914   -0.7503    1.3828 C   0  0  0  0  0  0  0  0  0  0  0  0
    3.5638   -0.8088    1.6432 C   0  0  0  0  0  0  0  0  0  0  0  0
    4.4588   -1.1181    0.6153 C   0  0  0  0  0  0  0  0  0  0  0  0
    3.9825   -1.3681   -0.6747 C   0  0  0  0  0  0  0  0  0  0  0  0
    2.6107   -1.3097   -0.9392 C   0  0  0  0  0  0  0  0  0  0  0  0
   -0.4600    3.6239    1.9668 H   0  0  0  0  0  0  0  0  0  0  0  0
    1.1113    5.0400    0.6809 H   0  0  0  0  0  0  0  0  0  0  0  0
    2.0893    4.2025   -1.4356 H   0  0  0  0  0  0  0  0  0  0  0  0
    1.5066    1.9618   -2.2735 H   0  0  0  0  0  0  0  0  0  0  0  0
    0.3563   -0.0635   -2.1084 H   0  0  0  0  0  0  0  0  0  0  0  0
   -1.9745    0.6370   -2.1948 H   0  0  0  0  0  0  0  0  0  0  0  0
   -4.2768    0.0383   -1.6724 H   0  0  0  0  0  0  0  0  0  0  0  0
   -5.8827   -1.3143   -0.3722 H   0  0  0  0  0  0  0  0  0  0  0  0
   -5.0693   -2.8819    1.3658 H   0  0  0  0  0  0  0  0  0  0  0  0
   -2.6557   -3.1042    1.8054 H   0  0  0  0  0  0  0  0  0  0  0  0
    1.5071   -0.4943    2.1819 H   0  0  0  0  0  0  0  0  0  0  0  0
    3.9337   -0.6102    2.6408 H   0  0  0  0  0  0  0  0  0  0  0  0
    5.5210   -1.1624    0.8179 H   0  0  0  0  0  0  0  0  0  0  0  0
    4.6765   -1.6074   -1.4701 H   0  0  0  0  0  0  0  0  0  0  0  0
    2.2542   -1.5118   -1.9408 H   0  0  0  0  0  0  0  0  0  0  0  0
  1  2  1  0
  2  7  2  0
  2  3  1  0
  3  4  2  0
  4  5  1  0
  5  6  2  0
  6  7  1  0
  7  8  1  0
  8 18  1  0
  8  9  1  0
  9 10  1  0
 10 15  2  0
 10 11  1  0
 11 12  2  0
 12 13  1  0
 13 14  2  0
 14 15  1  0
 15 16  1  0
 16 17  2  0
 16 18  1  0
 18 19  1  0
 19 20  2  0
 19 24  1  0
 20 21  1  0
 21 22  2  0
 22 23  1  0
 23 24  2  0
  3 25  1  0
  4 26  1  0
  5 27  1  0
  6 28  1  0
  8 29  1  6
  9 30  1  0
 11 31  1  0
 12 32  1  0
 13 33  1  0
 14 34  1  0
 20 35  1  0
 21 36  1  0
 22 37  1  0
 23 38  1  0
 24 39  1  0
M  END
>  <model_server_result.job_id>  (1) 
w5tsHEbClsKgw4fDocKsRM

>  <model_server_result.datetime_utc>  (1) 
2021-02-11 18:47:03

>  <model_server_result.server_version>  (1) 
0.9.6

>  <model_server_result.query_name>  (1) 
ligand

>  <model_server_result.source_id>  (1) 
pdb-bcif

>  <model_server_result.entry_id>  (1) 
5x72

>  <model_server_params.name>  (1) 
atom_site

>  <model_server_params.value>  (1) 
{"label_asym_id":"B","auth_seq_id":201}

>  <model_server_stats.io_time_ms>  (1) 
8

>  <model_server_stats.parse_time_ms>  (1) 
24

>  <model_server_stats.create_model_time_ms>  (1) 
3

>  <model_server_stats.query_time_ms>  (1) 
178

>  <model_server_stats.encode_time_ms>  (1) 
0

>  <model_server_stats.element_count>  (1) 
24

>  <ScrubInfo>  (1) 
{"isomerGroup": 0, "isomerId": 0, "confId": 0, "nr_conformers:": 1, "nr_isomers:": 1}

$$$$
