P69
     RDKit          3D

 39 42  0  0  1  0  0  0  0  0999 V2000
   -1.7228    0.3302    1.3052 F   0  0  0  0  0  0  0  0  0  0  0  0
   -1.9218   -0.7156    0.4650 C   0  0  0  0  0  0  0  0  0  0  0  0
   -2.8660   -1.6888    0.8080 C   0  0  0  0  0  0  0  0  0  0  0  0
   -3.0855   -2.7826   -0.0319 C   0  0  0  0  0  0  0  0  0  0  0  0
   -2.3605   -2.9083   -1.2184 C   0  0  0  0  0  0  0  0  0  0  0  0
   -1.4152   -1.9401   -1.5685 C   0  0  0  0  0  0  0  0  0  0  0  0
   -1.1870   -0.8315   -0.7330 C   0  0  0  0  0  0  0  0  0  0  0  0
   -0.1423    0.1975   -1.1142 C   0  0  1  0  0  0  0  0  0  0  0  0
   -0.7825    1.5051   -1.2986 N   0  0  0  0  0  0  0  0  0  0  0  0
   -0.5976    2.6237   -0.4227 C   0  0  0  0  0  0  0  0  0  0  0  0
   -1.3804    3.7774   -0.5848 C   0  0  0  0  0  0  0  0  0  0  0  0
   -1.2043    4.8733    0.2637 C   0  0  0  0  0  0  0  0  0  0  0  0
   -0.2441    4.8252    1.2761 C   0  0  0  0  0  0  0  0  0  0  0  0
    0.5424    3.6819    1.4406 C   0  0  0  0  0  0  0  0  0  0  0  0
    0.3682    2.5753    0.5898 C   0  0  0  0  0  0  0  0  0  0  0  0
    1.1871    1.3632    0.7311 C   0  0  0  0  0  0  0  0  0  0  0  0
    2.1198    1.3338    1.5813 O   0  0  0  0  0  0  0  0  0  0  0  0
    0.9419    0.2193   -0.1107 N   0  0  0  0  0  0  0  0  0  0  0  0
    1.7221   -0.9772    0.0768 C   0  0  0  0  0  0  0  0  0  0  0  0
    2.4763   -1.5078   -0.9824 C   0  0  0  0  0  0  0  0  0  0  0  0
    3.2080   -2.6860   -0.8043 C   0  0  0  0  0  0  0  0  0  0  0  0
    3.1879   -3.3437    0.4288 C   0  0  0  0  0  0  0  0  0  0  0  0
    2.4357   -2.8243    1.4861 C   0  0  0  0  0  0  0  0  0  0  0  0
    1.7036   -1.6461    1.3120 C   0  0  0  0  0  0  0  0  0  0  0  0
   -3.4275   -1.5965    1.7288 H   0  0  0  0  0  0  0  0  0  0  0  0
   -3.8163   -3.5340    0.2379 H   0  0  0  0  0  0  0  0  0  0  0  0
   -2.5293   -3.7582   -1.8670 H   0  0  0  0  0  0  0  0  0  0  0  0
   -0.8591   -2.0597   -2.4900 H   0  0  0  0  0  0  0  0  0  0  0  0
    0.3056   -0.0749   -2.0946 H   0  0  0  0  0  0  0  0  0  0  0  0
   -1.4690    1.5928   -2.0825 H   0  0  0  0  0  0  0  0  0  0  0  0
   -2.1280    3.8255   -1.3665 H   0  0  0  0  0  0  0  0  0  0  0  0
   -1.8121    5.7598    0.1361 H   0  0  0  0  0  0  0  0  0  0  0  0
   -0.1080    5.6747    1.9329 H   0  0  0  0  0  0  0  0  0  0  0  0
    1.2832    3.6637    2.2300 H   0  0  0  0  0  0  0  0  0  0  0  0
    2.5055   -1.0046   -1.9401 H   0  0  0  0  0  0  0  0  0  0  0  0
    3.7908   -3.0892   -1.6224 H   0  0  0  0  0  0  0  0  0  0  0  0
    3.7538   -4.2563    0.5646 H   0  0  0  0  0  0  0  0  0  0  0  0
    2.4165   -3.3369    2.4391 H   0  0  0  0  0  0  0  0  0  0  0  0
    1.1112   -1.2599    2.1319 H   0  0  0  0  0  0  0  0  0  0  0  0
  1  2  1  0
  2  3  2  0
  2  7  1  0
  3  4  1  0
  4  5  2  0
  5  6  1  0
  6  7  2  0
  7  8  1  0
  8  9  1  0
  8 18  1  0
  9 10  1  0
 10 11  2  0
 10 15  1  0
 11 12  1  0
 12 13  2  0
 13 14  1  0
 14 15  2  0
 15 16  1  0
 16 18  1  0
 16 17  2  0
 18 19  1  0
 19 20  2  0
 19 24  1  0
 20 21  1  0
 21 22  2  0
 22 23  1  0
 23 24  2  0
  3 25  1  0
  4 26  1  0
  5 27  1  0
  6 28  1  0
  8 29  1  6
  9 30  1  0
 11 31  1  0
 12 32  1  0
 13 33  1  0
 14 34  1  0
 20 35  1  0
 21 36  1  0
 22 37  1  0
 23 38  1  0
 24 39  1  0
M  END
>  <model_server_result.job_id>  (1) 
GcOWbE3DmMKSByAOw5hPwo

>  <model_server_result.datetime_utc>  (1) 
2021-02-11 18:47:09

>  <model_server_result.server_version>  (1) 
0.9.6

>  <model_server_result.query_name>  (1) 
ligand

>  <model_server_result.source_id>  (1) 
pdb-bcif

>  <model_server_result.entry_id>  (1) 
5x72

>  <model_server_params.name>  (1) 
atom_site

>  <model_server_params.value>  (1) 
{"label_asym_id":"C","auth_seq_id":202}

>  <model_server_stats.io_time_ms>  (1) 
3

>  <model_server_stats.parse_time_ms>  (1) 
34

>  <model_server_stats.create_model_time_ms>  (1) 
3

>  <model_server_stats.query_time_ms>  (1) 
184

>  <model_server_stats.encode_time_ms>  (1) 
0

>  <model_server_stats.element_count>  (1) 
24

>  <ScrubInfo>  (1) 
{"isomerGroup": 0, "isomerId": 0, "confId": 0, "nr_conformers:": 1, "nr_isomers:": 1}

$$$$
