REMARK SMILES O=C1c2ccccc2N[C@@H](c2ccccc2F)N1c1ccccc1
REMARK SMILES IDX 10 1 9 2 8 3 7 4 6 5 5 6 4 7 3 8 2 9 1 10 18 11 11 13 16 14
REMARK SMILES IDX 15 15 12 16 14 17 13 18 17 19 19 20 20 21 24 22 21 23 23 24
REMARK SMILES IDX 22 25
REMARK H PARENT 9 12
ROOT
ATOM      1  C   UNL     1      -0.168   0.112  -1.144  1.00  0.00     0.219 C 
ATOM      2  N   UNL     1      -1.605   0.028  -1.430  1.00  0.00    -0.360 N 
ATOM      3  C   UNL     1      -2.533  -0.757  -0.671  1.00  0.00     0.049 A 
ATOM      4  C   UNL     1      -3.910  -0.644  -0.915  1.00  0.00     0.026 A 
ATOM      5  C   UNL     1      -4.821  -1.407  -0.181  1.00  0.00     0.002 A 
ATOM      6  C   UNL     1      -4.363  -2.291   0.798  1.00  0.00     0.001 A 
ATOM      7  C   UNL     1      -2.993  -2.413   1.043  1.00  0.00     0.016 A 
ATOM      8  C   UNL     1      -2.071  -1.645   0.308  1.00  0.00     0.063 A 
ATOM      9  C   UNL     1      -0.624  -1.759   0.536  1.00  0.00     0.262 C 
ATOM     10  O   UNL     1      -0.185  -2.615   1.353  1.00  0.00    -0.269 OA
ATOM     11  N   UNL     1       0.293  -0.912  -0.184  1.00  0.00    -0.283 N 
ATOM     12  H   UNL     1      -1.974   0.637  -2.195  1.00  0.00     0.163 HD
ENDROOT
BRANCH   1  13
ATOM     13  C   UNL     1       0.169   1.498  -0.631  1.00  0.00     0.031 A 
ATOM     14  C   UNL     1      -0.379   1.982   0.575  1.00  0.00     0.130 A 
ATOM     15  C   UNL     1      -0.038   3.256   1.040  1.00  0.00     0.039 A 
ATOM     16  C   UNL     1       1.064   2.312  -1.349  1.00  0.00     0.011 A 
ATOM     17  C   UNL     1       0.849   4.055   0.316  1.00  0.00     0.003 A 
ATOM     18  C   UNL     1       1.399   3.583  -0.877  1.00  0.00     0.001 A 
ATOM     19  F   UNL     1      -1.235   1.224   1.304  1.00  0.00    -0.207 F 
ENDBRANCH   1  13
BRANCH  11  20
ATOM     20  C   UNL     1       1.705  -1.004   0.090  1.00  0.00     0.046 A 
ATOM     21  C   UNL     1       2.191  -0.750   1.383  1.00  0.00     0.026 A 
ATOM     22  C   UNL     1       2.611  -1.310  -0.939  1.00  0.00     0.026 A 
ATOM     23  C   UNL     1       3.564  -0.809   1.643  1.00  0.00     0.002 A 
ATOM     24  C   UNL     1       3.982  -1.368  -0.675  1.00  0.00     0.002 A 
ATOM     25  C   UNL     1       4.459  -1.118   0.615  1.00  0.00     0.000 A 
ENDBRANCH  11  20
TORSDOF 2
