MODEL 1
REMARK VINA RESULT:   -19.043      0.000      0.000
REMARK INTER + INTRA:         -25.355
REMARK INTER:                 -23.496
REMARK INTRA:                  -1.859
REMARK UNBOUND:                -1.859
REMARK SMILES O=C1c2ccccc2N[C@@H](c2ccccc2F)N1c1ccccc1
REMARK SMILES IDX 10 1 9 2 8 3 7 4 6 5 5 6 4 7 3 8 2 9 1 10 18 11 11 13 16 14
REMARK SMILES IDX 15 15 12 16 14 17 13 18 17 19 19 20 20 21 24 22 21 23 23 24
REMARK SMILES IDX 22 25
REMARK H PARENT 9 12
ROOT
ATOM      1  C   UNL     1     -19.321  17.833 129.415  1.00  0.00     0.219 C 
ATOM      2  N   UNL     1     -20.481  18.732 129.415  1.00  0.00    -0.360 N 
ATOM      3  C   UNL     1     -21.264  19.038 128.255  1.00  0.00     0.049 A 
ATOM      4  C   UNL     1     -22.451  19.774 128.385  1.00  0.00     0.026 A 
ATOM      5  C   UNL     1     -23.219  20.079 127.259  1.00  0.00     0.002 A 
ATOM      6  C   UNL     1     -22.804  19.655 125.995  1.00  0.00     0.001 A 
ATOM      7  C   UNL     1     -21.620  18.926 125.857  1.00  0.00     0.016 A 
ATOM      8  C   UNL     1     -20.844  18.614 126.988  1.00  0.00     0.063 A 
ATOM      9  C   UNL     1     -19.589  17.858 126.873  1.00  0.00     0.262 C 
ATOM     10  O   UNL     1     -19.152  17.543 125.732  1.00  0.00    -0.269 OA
ATOM     11  N   UNL     1     -18.850  17.496 128.056  1.00  0.00    -0.283 N 
ATOM     12  H   UNL     1     -20.787  19.113 130.339  1.00  0.00     0.163 HD
ENDROOT
BRANCH   1  13
ATOM     13  C   UNL     1     -19.658  16.567 130.179  1.00  0.00     0.031 A 
ATOM     14  C   UNL     1     -18.884  16.156 131.284  1.00  0.00     0.130 A 
ATOM     15  C   UNL     1     -19.225  14.996 131.987  1.00  0.00     0.039 A 
ATOM     16  C   UNL     1     -20.774  15.799 129.804  1.00  0.00     0.011 A 
ATOM     17  C   UNL     1     -20.334  14.241 131.603  1.00  0.00     0.003 A 
ATOM     18  C   UNL     1     -21.107  14.642 130.512  1.00  0.00     0.001 A 
ATOM     19  F   UNL     1     -17.807  16.876 131.686  1.00  0.00    -0.207 F 
ENDBRANCH   1  13
BRANCH  11  20
ATOM     20  C   UNL     1     -17.648  16.711 127.925  1.00  0.00     0.046 A 
ATOM     21  C   UNL     1     -16.390  17.337 127.954  1.00  0.00     0.026 A 
ATOM     22  C   UNL     1     -17.722  15.322 127.730  1.00  0.00     0.026 A 
ATOM     23  C   UNL     1     -15.224  16.580 127.797  1.00  0.00     0.002 A 
ATOM     24  C   UNL     1     -16.555  14.570 127.574  1.00  0.00     0.002 A 
ATOM     25  C   UNL     1     -15.306  15.198 127.607  1.00  0.00     0.000 A 
ENDBRANCH  11  20
TORSDOF 2
REMARK SMILES O=C1c2ccccc2N[C@H](c2ccccc2F)N1c1ccccc1
REMARK SMILES IDX 10 1 9 2 8 3 7 4 6 5 5 6 4 7 3 8 2 9 1 10 18 11 11 13 16 14
REMARK SMILES IDX 15 15 14 16 12 17 13 18 17 19 19 20 20 21 24 22 21 23 23 24
REMARK SMILES IDX 22 25
REMARK H PARENT 9 12
ROOT
ATOM      1  C   UNL     1     -12.687  15.972 131.253  1.00  0.00     0.219 C 
ATOM      2  N   UNL     1     -12.334  16.829 132.390  1.00  0.00    -0.360 N 
ATOM      3  C   UNL     1     -11.088  16.760 133.095  1.00  0.00     0.049 A 
ATOM      4  C   UNL     1     -10.906  17.502 134.271  1.00  0.00     0.026 A 
ATOM      5  C   UNL     1      -9.692  17.441 134.962  1.00  0.00     0.002 A 
ATOM      6  C   UNL     1      -8.653  16.644 134.479  1.00  0.00     0.001 A 
ATOM      7  C   UNL     1      -8.825  15.906 133.306  1.00  0.00     0.016 A 
ATOM      8  C   UNL     1     -10.045  15.962 132.607  1.00  0.00     0.063 A 
ATOM      9  C   UNL     1     -10.253  15.206 131.364  1.00  0.00     0.262 C 
ATOM     10  O   UNL     1      -9.297  14.550 130.864  1.00  0.00    -0.269 OA
ATOM     11  N   UNL     1     -11.535  15.229 130.705  1.00  0.00    -0.283 N 
ATOM     12  H   UNL     1     -13.072  17.479 132.746  1.00  0.00     0.163 HD
ENDROOT
BRANCH   1  13
ATOM     13  C   UNL     1     -13.784  15.009 131.663  1.00  0.00     0.031 A 
ATOM     14  C   UNL     1     -13.583  14.075 132.701  1.00  0.00     0.130 A 
ATOM     15  C   UNL     1     -14.601  13.181 133.049  1.00  0.00     0.039 A 
ATOM     16  C   UNL     1     -15.821  13.204 132.369  1.00  0.00     0.003 A 
ATOM     17  C   UNL     1     -15.015  15.020 130.984  1.00  0.00     0.011 A 
ATOM     18  C   UNL     1     -16.027  14.122 131.338  1.00  0.00     0.001 A 
ATOM     19  F   UNL     1     -12.406  14.022 133.372  1.00  0.00    -0.207 F 
ENDBRANCH   1  13
BRANCH  11  20
ATOM     20  C   UNL     1     -11.732  14.441 129.516  1.00  0.00     0.046 A 
ATOM     21  C   UNL     1     -11.965  13.060 129.609  1.00  0.00     0.026 A 
ATOM     22  C   UNL     1     -11.655  15.043 128.249  1.00  0.00     0.026 A 
ATOM     23  C   UNL     1     -12.127  12.294 128.450  1.00  0.00     0.002 A 
ATOM     24  C   UNL     1     -11.816  14.274 127.093  1.00  0.00     0.002 A 
ATOM     25  C   UNL     1     -12.052  12.900 127.193  1.00  0.00     0.000 A 
ENDBRANCH  11  20
TORSDOF 2
ENDMDL
MODEL 2
REMARK VINA RESULT:   -18.333      1.220      3.810
REMARK INTER + INTRA:         -24.479
REMARK INTER:                 -23.847
REMARK INTRA:                  -0.632
REMARK UNBOUND:                -1.859
REMARK SMILES O=C1c2ccccc2N[C@@H](c2ccccc2F)N1c1ccccc1
REMARK SMILES IDX 10 1 9 2 8 3 7 4 6 5 5 6 4 7 3 8 2 9 1 10 18 11 11 13 16 14
REMARK SMILES IDX 15 15 12 16 14 17 13 18 17 19 19 20 20 21 24 22 21 23 23 24
REMARK SMILES IDX 22 25
REMARK H PARENT 9 12
ROOT
ATOM      1  C   UNL     1     -19.229  16.088 127.955  1.00  0.00     0.219 C 
ATOM      2  N   UNL     1     -18.080  15.234 127.633  1.00  0.00    -0.360 N 
ATOM      3  C   UNL     1     -16.736  15.710 127.495  1.00  0.00     0.049 A 
ATOM      4  C   UNL     1     -15.680  14.797 127.352  1.00  0.00     0.026 A 
ATOM      5  C   UNL     1     -14.367  15.252 127.214  1.00  0.00     0.002 A 
ATOM      6  C   UNL     1     -14.100  16.623 127.214  1.00  0.00     0.001 A 
ATOM      7  C   UNL     1     -15.146  17.539 127.351  1.00  0.00     0.016 A 
ATOM      8  C   UNL     1     -16.471  17.085 127.492  1.00  0.00     0.063 A 
ATOM      9  C   UNL     1     -17.593  18.024 127.627  1.00  0.00     0.262 C 
ATOM     10  O   UNL     1     -17.383  19.265 127.541  1.00  0.00    -0.269 OA
ATOM     11  N   UNL     1     -18.930  17.530 127.837  1.00  0.00    -0.283 N 
ATOM     12  H   UNL     1     -18.255  14.205 127.571  1.00  0.00     0.163 HD
ENDROOT
BRANCH   1  13
ATOM     13  C   UNL     1     -19.725  15.770 129.351  1.00  0.00     0.031 A 
ATOM     14  C   UNL     1     -20.623  14.707 129.581  1.00  0.00     0.130 A 
ATOM     15  C   UNL     1     -21.051  14.418 130.881  1.00  0.00     0.039 A 
ATOM     16  C   UNL     1     -19.266  16.525 130.446  1.00  0.00     0.011 A 
ATOM     17  C   UNL     1     -20.591  15.177 131.958  1.00  0.00     0.003 A 
ATOM     18  C   UNL     1     -19.699  16.229 131.741  1.00  0.00     0.001 A 
ATOM     19  F   UNL     1     -21.079  13.947 128.555  1.00  0.00    -0.207 F 
ENDBRANCH   1  13
BRANCH  11  20
ATOM     20  C   UNL     1     -20.010  18.468 128.018  1.00  0.00     0.046 A 
ATOM     21  C   UNL     1     -21.048  18.539 127.074  1.00  0.00     0.026 A 
ATOM     22  C   UNL     1     -20.015  19.344 129.116  1.00  0.00     0.026 A 
ATOM     23  C   UNL     1     -22.080  19.470 127.232  1.00  0.00     0.002 A 
ATOM     24  C   UNL     1     -21.049  20.272 129.270  1.00  0.00     0.002 A 
ATOM     25  C   UNL     1     -22.081  20.336 128.329  1.00  0.00     0.000 A 
ENDBRANCH  11  20
TORSDOF 2
REMARK SMILES O=C1c2ccccc2N[C@H](c2ccccc2F)N1c1ccccc1
REMARK SMILES IDX 10 1 9 2 8 3 7 4 6 5 5 6 4 7 3 8 2 9 1 10 18 11 11 13 16 14
REMARK SMILES IDX 15 15 14 16 12 17 13 18 17 19 19 20 20 21 24 22 21 23 23 24
REMARK SMILES IDX 22 25
REMARK H PARENT 9 12
ROOT
ATOM      1  C   UNL     1     -12.623  16.030 131.111  1.00  0.00     0.219 C 
ATOM      2  N   UNL     1     -12.299  16.907 132.242  1.00  0.00    -0.360 N 
ATOM      3  C   UNL     1     -11.121  16.780 133.049  1.00  0.00     0.049 A 
ATOM      4  C   UNL     1     -10.980  17.555 134.209  1.00  0.00     0.026 A 
ATOM      5  C   UNL     1      -9.833  17.438 134.999  1.00  0.00     0.002 A 
ATOM      6  C   UNL     1      -8.820  16.550 134.633  1.00  0.00     0.001 A 
ATOM      7  C   UNL     1      -8.952  15.778 133.476  1.00  0.00     0.016 A 
ATOM      8  C   UNL     1     -10.105  15.891 132.678  1.00  0.00     0.063 A 
ATOM      9  C   UNL     1     -10.267  15.100 131.449  1.00  0.00     0.262 C 
ATOM     10  O   UNL     1      -9.325  14.359 131.053  1.00  0.00    -0.269 OA
ATOM     11  N   UNL     1     -11.487  15.186 130.687  1.00  0.00    -0.283 N 
ATOM     12  H   UNL     1     -13.013  17.621 132.511  1.00  0.00     0.163 HD
ENDROOT
BRANCH   1  13
ATOM     13  C   UNL     1     -13.816  15.164 131.463  1.00  0.00     0.031 A 
ATOM     14  C   UNL     1     -13.722  14.159 132.448  1.00  0.00     0.130 A 
ATOM     15  C   UNL     1     -14.829  13.357 132.742  1.00  0.00     0.039 A 
ATOM     16  C   UNL     1     -16.034  13.543 132.060  1.00  0.00     0.003 A 
ATOM     17  C   UNL     1     -15.033  15.339 130.781  1.00  0.00     0.011 A 
ATOM     18  C   UNL     1     -16.135  14.532 131.081  1.00  0.00     0.001 A 
ATOM     19  F   UNL     1     -12.562  13.949 133.119  1.00  0.00    -0.207 F 
ENDBRANCH   1  13
BRANCH  11  20
ATOM     20  C   UNL     1     -11.647  14.366 129.514  1.00  0.00     0.046 A 
ATOM     21  C   UNL     1     -12.422  13.196 129.564  1.00  0.00     0.026 A 
ATOM     22  C   UNL     1     -10.994  14.708 128.318  1.00  0.00     0.026 A 
ATOM     23  C   UNL     1     -12.550  12.386 128.431  1.00  0.00     0.002 A 
ATOM     24  C   UNL     1     -11.123  13.896 127.187  1.00  0.00     0.002 A 
ATOM     25  C   UNL     1     -11.901  12.736 127.244  1.00  0.00     0.000 A 
ENDBRANCH  11  20
TORSDOF 2
ENDMDL
MODEL 3
REMARK VINA RESULT:   -17.271      1.247      3.007
REMARK INTER + INTRA:         -23.169
REMARK INTER:                 -21.870
REMARK INTRA:                  -1.299
REMARK UNBOUND:                -1.859
REMARK SMILES O=C1c2ccccc2N[C@@H](c2ccccc2F)N1c1ccccc1
REMARK SMILES IDX 10 1 9 2 8 3 7 4 6 5 5 6 4 7 3 8 2 9 1 10 18 11 11 13 16 14
REMARK SMILES IDX 15 15 12 16 14 17 13 18 17 19 19 20 20 21 24 22 21 23 23 24
REMARK SMILES IDX 22 25
REMARK H PARENT 9 12
ROOT
ATOM      1  C   UNL     1     -19.494  18.089 129.244  1.00  0.00     0.219 C 
ATOM      2  N   UNL     1     -20.624  19.024 129.210  1.00  0.00    -0.360 N 
ATOM      3  C   UNL     1     -21.413  19.292 128.044  1.00  0.00     0.049 A 
ATOM      4  C   UNL     1     -22.575  20.072 128.148  1.00  0.00     0.026 A 
ATOM      5  C   UNL     1     -23.348  20.339 127.016  1.00  0.00     0.002 A 
ATOM      6  C   UNL     1     -22.964  19.834 125.772  1.00  0.00     0.001 A 
ATOM      7  C   UNL     1     -21.806  19.061 125.660  1.00  0.00     0.016 A 
ATOM      8  C   UNL     1     -21.024  18.786 126.797  1.00  0.00     0.063 A 
ATOM      9  C   UNL     1     -19.796  17.985 126.709  1.00  0.00     0.262 C 
ATOM     10  O   UNL     1     -19.384  17.594 125.582  1.00  0.00    -0.269 OA
ATOM     11  N   UNL     1     -19.052  17.664 127.900  1.00  0.00    -0.283 N 
ATOM     12  H   UNL     1     -20.905  19.464 130.115  1.00  0.00     0.163 HD
ENDROOT
BRANCH   1  13
ATOM     13  C   UNL     1     -19.859  16.879 130.081  1.00  0.00     0.031 A 
ATOM     14  C   UNL     1     -19.503  16.800 131.443  1.00  0.00     0.130 A 
ATOM     15  C   UNL     1     -19.869  15.683 132.201  1.00  0.00     0.039 A 
ATOM     16  C   UNL     1     -20.590  15.823 129.504  1.00  0.00     0.011 A 
ATOM     17  C   UNL     1     -20.591  14.641 131.616  1.00  0.00     0.003 A 
ATOM     18  C   UNL     1     -20.950  14.712 130.269  1.00  0.00     0.001 A 
ATOM     19  F   UNL     1     -18.811  17.801 132.041  1.00  0.00    -0.207 F 
ENDBRANCH   1  13
BRANCH  11  20
ATOM     20  C   UNL     1     -17.877  16.835 127.799  1.00  0.00     0.046 A 
ATOM     21  C   UNL     1     -16.598  17.407 127.903  1.00  0.00     0.026 A 
ATOM     22  C   UNL     1     -17.997  15.457 127.556  1.00  0.00     0.026 A 
ATOM     23  C   UNL     1     -15.457  16.608 127.775  1.00  0.00     0.002 A 
ATOM     24  C   UNL     1     -16.855  14.662 127.428  1.00  0.00     0.002 A 
ATOM     25  C   UNL     1     -15.585  15.237 127.537  1.00  0.00     0.000 A 
ENDBRANCH  11  20
TORSDOF 2
REMARK SMILES O=C1c2ccccc2N[C@H](c2ccccc2F)N1c1ccccc1
REMARK SMILES IDX 10 1 9 2 8 3 7 4 6 5 5 6 4 7 3 8 2 9 1 10 18 11 11 13 16 14
REMARK SMILES IDX 15 15 14 16 12 17 13 18 17 19 19 20 20 21 24 22 21 23 23 24
REMARK SMILES IDX 22 25
REMARK H PARENT 9 12
ROOT
ATOM      1  C   UNL     1     -11.781  13.907 131.486  1.00  0.00     0.219 C 
ATOM      2  N   UNL     1     -10.401  14.246 131.849  1.00  0.00    -0.360 N 
ATOM      3  C   UNL     1     -10.014  15.464 132.498  1.00  0.00     0.049 A 
ATOM      4  C   UNL     1      -8.655  15.775 132.653  1.00  0.00     0.026 A 
ATOM      5  C   UNL     1      -8.271  16.959 133.288  1.00  0.00     0.002 A 
ATOM      6  C   UNL     1      -9.241  17.836 133.775  1.00  0.00     0.001 A 
ATOM      7  C   UNL     1     -10.596  17.532 133.628  1.00  0.00     0.016 A 
ATOM      8  C   UNL     1     -10.989  16.342 132.989  1.00  0.00     0.063 A 
ATOM      9  C   UNL     1     -12.406  15.988 132.830  1.00  0.00     0.262 C 
ATOM     10  O   UNL     1     -13.296  16.723 133.341  1.00  0.00    -0.269 OA
ATOM     11  N   UNL     1     -12.781  14.796 132.111  1.00  0.00    -0.283 N 
ATOM     12  H   UNL     1      -9.651  13.583 131.546  1.00  0.00     0.163 HD
ENDROOT
BRANCH   1  13
ATOM     13  C   UNL     1     -11.932  13.929 129.978  1.00  0.00     0.031 A 
ATOM     14  C   UNL     1     -11.902  15.142 129.260  1.00  0.00     0.130 A 
ATOM     15  C   UNL     1     -12.065  15.142 127.871  1.00  0.00     0.039 A 
ATOM     16  C   UNL     1     -12.261  13.941 127.186  1.00  0.00     0.003 A 
ATOM     17  C   UNL     1     -12.134  12.726 129.277  1.00  0.00     0.011 A 
ATOM     18  C   UNL     1     -12.296  12.735 127.888  1.00  0.00     0.001 A 
ATOM     19  F   UNL     1     -11.723  16.325 129.899  1.00  0.00    -0.207 F 
ENDBRANCH   1  13
BRANCH  11  20
ATOM     20  C   UNL     1     -14.177  14.493 131.923  1.00  0.00     0.046 A 
ATOM     21  C   UNL     1     -14.985  15.327 131.133  1.00  0.00     0.026 A 
ATOM     22  C   UNL     1     -14.752  13.382 132.561  1.00  0.00     0.026 A 
ATOM     23  C   UNL     1     -16.346  15.047 130.977  1.00  0.00     0.002 A 
ATOM     24  C   UNL     1     -16.113  13.105 132.404  1.00  0.00     0.002 A 
ATOM     25  C   UNL     1     -16.910  13.937 131.612  1.00  0.00     0.000 A 
ENDBRANCH  11  20
TORSDOF 2
ENDMDL
MODEL 4
REMARK VINA RESULT:   -17.217      1.432      3.286
REMARK INTER + INTRA:         -23.103
REMARK INTER:                 -21.409
REMARK INTRA:                  -1.693
REMARK UNBOUND:                -1.859
REMARK SMILES O=C1c2ccccc2N[C@@H](c2ccccc2F)N1c1ccccc1
REMARK SMILES IDX 10 1 9 2 8 3 7 4 6 5 5 6 4 7 3 8 2 9 1 10 18 11 11 13 16 14
REMARK SMILES IDX 15 15 12 16 14 17 13 18 17 19 19 20 20 21 24 22 21 23 23 24
REMARK SMILES IDX 22 25
REMARK H PARENT 9 12
ROOT
ATOM      1  C   UNL     1     -19.797  16.835 127.106  1.00  0.00     0.219 C 
ATOM      2  N   UNL     1     -20.385  17.587 125.992  1.00  0.00    -0.360 N 
ATOM      3  C   UNL     1     -21.227  18.736 126.150  1.00  0.00     0.049 A 
ATOM      4  C   UNL     1     -21.605  19.488 125.027  1.00  0.00     0.026 A 
ATOM      5  C   UNL     1     -22.427  20.607 125.173  1.00  0.00     0.002 A 
ATOM      6  C   UNL     1     -22.882  20.980 126.439  1.00  0.00     0.001 A 
ATOM      7  C   UNL     1     -22.514  20.233 127.561  1.00  0.00     0.016 A 
ATOM      8  C   UNL     1     -21.684  19.106 127.420  1.00  0.00     0.063 A 
ATOM      9  C   UNL     1     -21.289  18.295 128.580  1.00  0.00     0.262 C 
ATOM     10  O   UNL     1     -21.760  18.563 129.720  1.00  0.00    -0.269 OA
ATOM     11  N   UNL     1     -20.384  17.186 128.416  1.00  0.00    -0.283 N 
ATOM     12  H   UNL     1     -20.109  17.299 125.026  1.00  0.00     0.163 HD
ENDROOT
BRANCH   1  13
ATOM     13  C   UNL     1     -18.297  17.051 127.132  1.00  0.00     0.031 A 
ATOM     14  C   UNL     1     -17.406  16.023 126.760  1.00  0.00     0.130 A 
ATOM     15  C   UNL     1     -16.026  16.251 126.772  1.00  0.00     0.039 A 
ATOM     16  C   UNL     1     -17.776  18.304 127.505  1.00  0.00     0.011 A 
ATOM     17  C   UNL     1     -15.523  17.498 127.147  1.00  0.00     0.003 A 
ATOM     18  C   UNL     1     -16.397  18.523 127.513  1.00  0.00     0.001 A 
ATOM     19  F   UNL     1     -17.867  14.806 126.382  1.00  0.00    -0.207 F 
ENDBRANCH   1  13
BRANCH  11  20
ATOM     20  C   UNL     1     -19.970  16.433 129.573  1.00  0.00     0.046 A 
ATOM     21  C   UNL     1     -20.516  15.164 129.822  1.00  0.00     0.026 A 
ATOM     22  C   UNL     1     -19.046  16.976 130.482  1.00  0.00     0.026 A 
ATOM     23  C   UNL     1     -20.138  14.446 130.961  1.00  0.00     0.002 A 
ATOM     24  C   UNL     1     -18.671  16.256 131.618  1.00  0.00     0.002 A 
ATOM     25  C   UNL     1     -19.215  14.991 131.859  1.00  0.00     0.000 A 
ENDBRANCH  11  20
TORSDOF 2
REMARK SMILES O=C1c2ccccc2N[C@H](c2ccccc2F)N1c1ccccc1
REMARK SMILES IDX 10 1 9 2 8 3 7 4 6 5 5 6 4 7 3 8 2 9 1 10 18 11 11 13 16 14
REMARK SMILES IDX 15 15 14 16 12 17 13 18 17 19 19 20 20 21 24 22 21 23 23 24
REMARK SMILES IDX 22 25
REMARK H PARENT 9 12
ROOT
ATOM      1  C   UNL     1     -12.723  16.040 131.270  1.00  0.00     0.219 C 
ATOM      2  N   UNL     1     -12.343  16.860 132.425  1.00  0.00    -0.360 N 
ATOM      3  C   UNL     1     -11.063  16.807 133.066  1.00  0.00     0.049 A 
ATOM      4  C   UNL     1     -10.849  17.504 134.264  1.00  0.00     0.026 A 
ATOM      5  C   UNL     1      -9.602  17.459 134.893  1.00  0.00     0.002 A 
ATOM      6  C   UNL     1      -8.562  16.720 134.328  1.00  0.00     0.001 A 
ATOM      7  C   UNL     1      -8.765  16.026 133.133  1.00  0.00     0.016 A 
ATOM      8  C   UNL     1     -10.019  16.067 132.496  1.00  0.00     0.063 A 
ATOM      9  C   UNL     1     -10.261  15.357 131.232  1.00  0.00     0.262 C 
ATOM     10  O   UNL     1      -9.309  14.758 130.659  1.00  0.00    -0.269 OA
ATOM     11  N   UNL     1     -11.574  15.362 130.636  1.00  0.00    -0.283 N 
ATOM     12  H   UNL     1     -13.085  17.468 132.842  1.00  0.00     0.163 HD
ENDROOT
BRANCH   1  13
ATOM     13  C   UNL     1     -13.765  15.021 131.688  1.00  0.00     0.031 A 
ATOM     14  C   UNL     1     -15.020  14.957 131.048  1.00  0.00     0.130 A 
ATOM     15  C   UNL     1     -15.975  14.025 131.465  1.00  0.00     0.039 A 
ATOM     16  C   UNL     1     -15.693  13.151 132.518  1.00  0.00     0.003 A 
ATOM     17  C   UNL     1     -13.494  14.139 132.750  1.00  0.00     0.011 A 
ATOM     18  C   UNL     1     -14.455  13.209 133.159  1.00  0.00     0.001 A 
ATOM     19  F   UNL     1     -15.325  15.799 130.030  1.00  0.00    -0.207 F 
ENDBRANCH   1  13
BRANCH  11  20
ATOM     20  C   UNL     1     -11.802  14.618 129.424  1.00  0.00     0.046 A 
ATOM     21  C   UNL     1     -12.416  15.230 128.319  1.00  0.00     0.026 A 
ATOM     22  C   UNL     1     -11.449  13.261 129.350  1.00  0.00     0.026 A 
ATOM     23  C   UNL     1     -12.664  14.497 127.155  1.00  0.00     0.002 A 
ATOM     24  C   UNL     1     -11.699  12.530 128.185  1.00  0.00     0.002 A 
ATOM     25  C   UNL     1     -12.306  13.147 127.088  1.00  0.00     0.000 A 
ENDBRANCH  11  20
TORSDOF 2
ENDMDL
MODEL 5
REMARK VINA RESULT:   -16.452      1.099      3.717
REMARK INTER + INTRA:         -22.159
REMARK INTER:                 -20.398
REMARK INTRA:                  -1.761
REMARK UNBOUND:                -1.859
REMARK SMILES O=C1c2ccccc2N[C@@H](c2ccccc2F)N1c1ccccc1
REMARK SMILES IDX 10 1 9 2 8 3 7 4 6 5 5 6 4 7 3 8 2 9 1 10 18 11 11 13 16 14
REMARK SMILES IDX 15 15 12 16 14 17 13 18 17 19 19 20 20 21 24 22 21 23 23 24
REMARK SMILES IDX 22 25
REMARK H PARENT 9 12
ROOT
ATOM      1  C   UNL     1     -19.293  17.818 129.429  1.00  0.00     0.219 C 
ATOM      2  N   UNL     1     -20.469  18.696 129.436  1.00  0.00    -0.360 N 
ATOM      3  C   UNL     1     -21.259  18.993 128.278  1.00  0.00     0.049 A 
ATOM      4  C   UNL     1     -22.459  19.708 128.414  1.00  0.00     0.026 A 
ATOM      5  C   UNL     1     -23.235  20.003 127.290  1.00  0.00     0.002 A 
ATOM      6  C   UNL     1     -22.815  19.591 126.024  1.00  0.00     0.001 A 
ATOM      7  C   UNL     1     -21.618  18.884 125.880  1.00  0.00     0.016 A 
ATOM      8  C   UNL     1     -20.834  18.582 127.009  1.00  0.00     0.063 A 
ATOM      9  C   UNL     1     -19.567  17.849 126.889  1.00  0.00     0.262 C 
ATOM     10  O   UNL     1     -19.126  17.546 125.746  1.00  0.00    -0.269 OA
ATOM     11  N   UNL     1     -18.818  17.495 128.068  1.00  0.00    -0.283 N 
ATOM     12  H   UNL     1     -20.780  19.068 130.362  1.00  0.00     0.163 HD
ENDROOT
BRANCH   1  13
ATOM     13  C   UNL     1     -19.605  16.544 130.189  1.00  0.00     0.031 A 
ATOM     14  C   UNL     1     -18.753  16.077 131.211  1.00  0.00     0.130 A 
ATOM     15  C   UNL     1     -19.071  14.911 131.913  1.00  0.00     0.039 A 
ATOM     16  C   UNL     1     -20.777  15.822 129.895  1.00  0.00     0.011 A 
ATOM     17  C   UNL     1     -20.235  14.202 131.609  1.00  0.00     0.003 A 
ATOM     18  C   UNL     1     -21.087  14.658 130.601  1.00  0.00     0.001 A 
ATOM     19  F   UNL     1     -17.621  16.751 131.535  1.00  0.00    -0.207 F 
ENDBRANCH   1  13
BRANCH  11  20
ATOM     20  C   UNL     1     -17.603  16.733 127.932  1.00  0.00     0.046 A 
ATOM     21  C   UNL     1     -16.357  17.381 127.957  1.00  0.00     0.026 A 
ATOM     22  C   UNL     1     -17.653  15.343 127.735  1.00  0.00     0.026 A 
ATOM     23  C   UNL     1     -15.178  16.646 127.795  1.00  0.00     0.002 A 
ATOM     24  C   UNL     1     -16.473  14.612 127.573  1.00  0.00     0.002 A 
ATOM     25  C   UNL     1     -15.236  15.262 127.604  1.00  0.00     0.000 A 
ENDBRANCH  11  20
TORSDOF 2
REMARK SMILES O=C1c2ccccc2N[C@H](c2ccccc2F)N1c1ccccc1
REMARK SMILES IDX 10 1 9 2 8 3 7 4 6 5 5 6 4 7 3 8 2 9 1 10 18 11 11 13 16 14
REMARK SMILES IDX 15 15 14 16 12 17 13 18 17 19 19 20 20 21 24 22 21 23 23 24
REMARK SMILES IDX 22 25
REMARK H PARENT 9 12
ROOT
ATOM      1  C   UNL     1     -11.685  13.238 131.532  1.00  0.00     0.219 C 
ATOM      2  N   UNL     1     -11.600  12.297 130.410  1.00  0.00    -0.360 N 
ATOM      3  C   UNL     1     -11.164  12.651 129.092  1.00  0.00     0.049 A 
ATOM      4  C   UNL     1     -11.276  11.725 128.044  1.00  0.00     0.026 A 
ATOM      5  C   UNL     1     -10.850  12.062 126.757  1.00  0.00     0.002 A 
ATOM      6  C   UNL     1     -10.307  13.324 126.510  1.00  0.00     0.001 A 
ATOM      7  C   UNL     1     -10.187  14.250 127.549  1.00  0.00     0.016 A 
ATOM      8  C   UNL     1     -10.616  13.916 128.847  1.00  0.00     0.063 A 
ATOM      9  C   UNL     1     -10.493  14.864 129.963  1.00  0.00     0.262 C 
ATOM     10  O   UNL     1      -9.923  15.976 129.779  1.00  0.00    -0.269 OA
ATOM     11  N   UNL     1     -11.001  14.521 131.267  1.00  0.00    -0.283 N 
ATOM     12  H   UNL     1     -11.950  11.325 130.576  1.00  0.00     0.163 HD
ENDROOT
BRANCH   1  13
ATOM     13  C   UNL     1     -13.139  13.483 131.884  1.00  0.00     0.031 A 
ATOM     14  C   UNL     1     -14.037  14.020 130.938  1.00  0.00     0.130 A 
ATOM     15  C   UNL     1     -15.369  14.259 131.290  1.00  0.00     0.039 A 
ATOM     16  C   UNL     1     -15.819  13.969 132.580  1.00  0.00     0.003 A 
ATOM     17  C   UNL     1     -13.603  13.199 133.181  1.00  0.00     0.011 A 
ATOM     18  C   UNL     1     -14.937  13.441 133.524  1.00  0.00     0.001 A 
ATOM     19  F   UNL     1     -13.626  14.321 129.681  1.00  0.00    -0.207 F 
ENDBRANCH   1  13
BRANCH  11  20
ATOM     20  C   UNL     1     -10.917  15.483 132.335  1.00  0.00     0.046 A 
ATOM     21  C   UNL     1     -11.945  16.420 132.531  1.00  0.00     0.026 A 
ATOM     22  C   UNL     1      -9.785  15.519 133.166  1.00  0.00     0.026 A 
ATOM     23  C   UNL     1     -11.845  17.372 133.550  1.00  0.00     0.002 A 
ATOM     24  C   UNL     1      -9.688  16.473 134.183  1.00  0.00     0.002 A 
ATOM     25  C   UNL     1     -10.717  17.399 134.376  1.00  0.00     0.000 A 
ENDBRANCH  11  20
TORSDOF 2
ENDMDL
MODEL 6
REMARK VINA RESULT:   -16.347      1.700      4.839
REMARK INTER + INTRA:         -22.030
REMARK INTER:                 -20.838
REMARK INTRA:                  -1.192
REMARK UNBOUND:                -1.859
REMARK SMILES O=C1c2ccccc2N[C@@H](c2ccccc2F)N1c1ccccc1
REMARK SMILES IDX 10 1 9 2 8 3 7 4 6 5 5 6 4 7 3 8 2 9 1 10 18 11 11 13 16 14
REMARK SMILES IDX 15 15 12 16 14 17 13 18 17 19 19 20 20 21 24 22 21 23 23 24
REMARK SMILES IDX 22 25
REMARK H PARENT 9 12
ROOT
ATOM      1  C   UNL     1     -19.033  15.913 127.895  1.00  0.00     0.219 C 
ATOM      2  N   UNL     1     -17.874  15.052 127.632  1.00  0.00    -0.360 N 
ATOM      3  C   UNL     1     -16.526  15.526 127.528  1.00  0.00     0.049 A 
ATOM      4  C   UNL     1     -15.466  14.610 127.442  1.00  0.00     0.026 A 
ATOM      5  C   UNL     1     -14.149  15.063 127.338  1.00  0.00     0.002 A 
ATOM      6  C   UNL     1     -13.882  16.434 127.315  1.00  0.00     0.001 A 
ATOM      7  C   UNL     1     -14.932  17.352 127.395  1.00  0.00     0.016 A 
ATOM      8  C   UNL     1     -16.260  16.900 127.502  1.00  0.00     0.063 A 
ATOM      9  C   UNL     1     -17.386  17.841 127.577  1.00  0.00     0.262 C 
ATOM     10  O   UNL     1     -17.174  19.081 127.469  1.00  0.00    -0.269 OA
ATOM     11  N   UNL     1     -18.730  17.352 127.754  1.00  0.00    -0.283 N 
ATOM     12  H   UNL     1     -18.047  14.022 127.588  1.00  0.00     0.163 HD
ENDROOT
BRANCH   1  13
ATOM     13  C   UNL     1     -19.576  15.627 129.281  1.00  0.00     0.031 A 
ATOM     14  C   UNL     1     -20.548  14.628 129.492  1.00  0.00     0.130 A 
ATOM     15  C   UNL     1     -21.020  14.367 130.782  1.00  0.00     0.039 A 
ATOM     16  C   UNL     1     -19.087  16.347 130.387  1.00  0.00     0.011 A 
ATOM     17  C   UNL     1     -20.528  15.091 131.870  1.00  0.00     0.003 A 
ATOM     18  C   UNL     1     -19.563  16.080 131.672  1.00  0.00     0.001 A 
ATOM     19  F   UNL     1     -21.036  13.902 128.455  1.00  0.00    -0.207 F 
ENDBRANCH   1  13
BRANCH  11  20
ATOM     20  C   UNL     1     -19.815  18.293 127.876  1.00  0.00     0.046 A 
ATOM     21  C   UNL     1     -20.806  18.360 126.883  1.00  0.00     0.026 A 
ATOM     22  C   UNL     1     -19.872  19.177 128.966  1.00  0.00     0.026 A 
ATOM     23  C   UNL     1     -21.843  19.293 126.985  1.00  0.00     0.002 A 
ATOM     24  C   UNL     1     -20.909  20.108 129.064  1.00  0.00     0.002 A 
ATOM     25  C   UNL     1     -21.894  20.167 128.075  1.00  0.00     0.000 A 
ENDBRANCH  11  20
TORSDOF 2
REMARK SMILES O=C1c2ccccc2N[C@H](c2ccccc2F)N1c1ccccc1
REMARK SMILES IDX 10 1 9 2 8 3 7 4 6 5 5 6 4 7 3 8 2 9 1 10 18 11 11 13 16 14
REMARK SMILES IDX 15 15 14 16 12 17 13 18 17 19 19 20 20 21 24 22 21 23 23 24
REMARK SMILES IDX 22 25
REMARK H PARENT 9 12
ROOT
ATOM      1  C   UNL     1     -11.383  13.980 132.096  1.00  0.00     0.219 C 
ATOM      2  N   UNL     1     -10.084  14.381 132.646  1.00  0.00    -0.360 N 
ATOM      3  C   UNL     1      -9.814  15.666 133.222  1.00  0.00     0.049 A 
ATOM      4  C   UNL     1      -8.501  16.017 133.568  1.00  0.00     0.026 A 
ATOM      5  C   UNL     1      -8.232  17.267 134.132  1.00  0.00     0.002 A 
ATOM      6  C   UNL     1      -9.271  18.171 134.356  1.00  0.00     0.001 A 
ATOM      7  C   UNL     1     -10.582  17.827 134.018  1.00  0.00     0.016 A 
ATOM      8  C   UNL     1     -10.859  16.570 133.449  1.00  0.00     0.063 A 
ATOM      9  C   UNL     1     -12.229  16.175 133.093  1.00  0.00     0.262 C 
ATOM     10  O   UNL     1     -13.194  16.941 133.370  1.00  0.00    -0.269 OA
ATOM     11  N   UNL     1     -12.476  14.909 132.450  1.00  0.00    -0.283 N 
ATOM     12  H   UNL     1      -9.293  13.705 132.543  1.00  0.00     0.163 HD
ENDROOT
BRANCH   1  13
ATOM     13  C   UNL     1     -11.279  13.846 130.589  1.00  0.00     0.031 A 
ATOM     14  C   UNL     1     -10.832  14.919 129.791  1.00  0.00     0.130 A 
ATOM     15  C   UNL     1     -10.763  14.781 128.401  1.00  0.00     0.039 A 
ATOM     16  C   UNL     1     -11.139  13.580 127.794  1.00  0.00     0.003 A 
ATOM     17  C   UNL     1     -11.658  12.643 129.966  1.00  0.00     0.011 A 
ATOM     18  C   UNL     1     -11.586  12.514 128.575  1.00  0.00     0.001 A 
ATOM     19  F   UNL     1     -10.469  16.099 130.351  1.00  0.00    -0.207 F 
ENDBRANCH   1  13
BRANCH  11  20
ATOM     20  C   UNL     1     -13.819  14.562 132.063  1.00  0.00     0.046 A 
ATOM     21  C   UNL     1     -14.478  15.284 131.055  1.00  0.00     0.026 A 
ATOM     22  C   UNL     1     -14.497  13.522 132.720  1.00  0.00     0.026 A 
ATOM     23  C   UNL     1     -15.793  14.963 130.704  1.00  0.00     0.002 A 
ATOM     24  C   UNL     1     -15.812  13.205 132.367  1.00  0.00     0.002 A 
ATOM     25  C   UNL     1     -16.460  13.924 131.359  1.00  0.00     0.000 A 
ENDBRANCH  11  20
TORSDOF 2
ENDMDL
MODEL 7
REMARK VINA RESULT:   -16.236      1.335      5.195
REMARK INTER + INTRA:         -21.892
REMARK INTER:                 -20.156
REMARK INTRA:                  -1.736
REMARK UNBOUND:                -1.859
REMARK SMILES O=C1c2ccccc2N[C@@H](c2ccccc2F)N1c1ccccc1
REMARK SMILES IDX 10 1 9 2 8 3 7 4 6 5 5 6 4 7 3 8 2 9 1 10 18 11 11 13 16 14
REMARK SMILES IDX 15 15 12 16 14 17 13 18 17 19 19 20 20 21 24 22 21 23 23 24
REMARK SMILES IDX 22 25
REMARK H PARENT 9 12
ROOT
ATOM      1  C   UNL     1     -18.745  15.692 127.867  1.00  0.00     0.219 C 
ATOM      2  N   UNL     1     -17.588  14.820 127.633  1.00  0.00    -0.360 N 
ATOM      3  C   UNL     1     -16.236  15.284 127.540  1.00  0.00     0.049 A 
ATOM      4  C   UNL     1     -15.181  14.360 127.482  1.00  0.00     0.026 A 
ATOM      5  C   UNL     1     -13.860  14.804 127.389  1.00  0.00     0.002 A 
ATOM      6  C   UNL     1     -13.584  16.172 127.347  1.00  0.00     0.001 A 
ATOM      7  C   UNL     1     -14.629  17.098 127.399  1.00  0.00     0.016 A 
ATOM      8  C   UNL     1     -15.961  16.656 127.495  1.00  0.00     0.063 A 
ATOM      9  C   UNL     1     -17.082  17.605 127.541  1.00  0.00     0.262 C 
ATOM     10  O   UNL     1     -16.861  18.841 127.416  1.00  0.00    -0.269 OA
ATOM     11  N   UNL     1     -18.432  17.127 127.707  1.00  0.00    -0.283 N 
ATOM     12  H   UNL     1     -17.767  13.791 127.604  1.00  0.00     0.163 HD
ENDROOT
BRANCH   1  13
ATOM     13  C   UNL     1     -19.308  15.432 129.251  1.00  0.00     0.031 A 
ATOM     14  C   UNL     1     -18.598  15.809 130.409  1.00  0.00     0.130 A 
ATOM     15  C   UNL     1     -19.145  15.578 131.675  1.00  0.00     0.039 A 
ATOM     16  C   UNL     1     -20.571  14.829 129.391  1.00  0.00     0.011 A 
ATOM     17  C   UNL     1     -20.399  14.976 131.800  1.00  0.00     0.003 A 
ATOM     18  C   UNL     1     -21.110  14.602 130.659  1.00  0.00     0.001 A 
ATOM     19  F   UNL     1     -17.383  16.405 130.318  1.00  0.00    -0.207 F 
ENDBRANCH   1  13
BRANCH  11  20
ATOM     20  C   UNL     1     -19.512  18.076 127.800  1.00  0.00     0.046 A 
ATOM     21  C   UNL     1     -19.619  18.916 128.920  1.00  0.00     0.026 A 
ATOM     22  C   UNL     1     -20.488  18.143 126.792  1.00  0.00     0.026 A 
ATOM     23  C   UNL     1     -20.685  19.817 129.025  1.00  0.00     0.002 A 
ATOM     24  C   UNL     1     -21.551  19.044 126.900  1.00  0.00     0.002 A 
ATOM     25  C   UNL     1     -21.650  19.881 128.016  1.00  0.00     0.000 A 
ENDBRANCH  11  20
TORSDOF 2
REMARK SMILES O=C1c2ccccc2N[C@H](c2ccccc2F)N1c1ccccc1
REMARK SMILES IDX 10 1 9 2 8 3 7 4 6 5 5 6 4 7 3 8 2 9 1 10 18 11 11 13 16 14
REMARK SMILES IDX 15 15 14 16 12 17 13 18 17 19 19 20 20 21 24 22 21 23 23 24
REMARK SMILES IDX 22 25
REMARK H PARENT 9 12
ROOT
ATOM      1  C   UNL     1     -11.614  13.291 131.430  1.00  0.00     0.219 C 
ATOM      2  N   UNL     1     -11.573  12.404 130.262  1.00  0.00    -0.360 N 
ATOM      3  C   UNL     1     -11.157  12.812 128.953  1.00  0.00     0.049 A 
ATOM      4  C   UNL     1     -11.310  11.940 127.865  1.00  0.00     0.026 A 
ATOM      5  C   UNL     1     -10.904  12.331 126.586  1.00  0.00     0.002 A 
ATOM      6  C   UNL     1     -10.339  13.592 126.388  1.00  0.00     0.001 A 
ATOM      7  C   UNL     1     -10.179  14.464 127.468  1.00  0.00     0.016 A 
ATOM      8  C   UNL     1     -10.587  14.076 128.757  1.00  0.00     0.063 A 
ATOM      9  C   UNL     1     -10.421  14.967 129.914  1.00  0.00     0.262 C 
ATOM     10  O   UNL     1      -9.831  16.074 129.772  1.00  0.00    -0.269 OA
ATOM     11  N   UNL     1     -10.909  14.571 131.211  1.00  0.00    -0.283 N 
ATOM     12  H   UNL     1     -11.939  11.432 130.389  1.00  0.00     0.163 HD
ENDROOT
BRANCH   1  13
ATOM     13  C   UNL     1     -13.055  13.548 131.824  1.00  0.00     0.031 A 
ATOM     14  C   UNL     1     -13.503  13.314 133.141  1.00  0.00     0.130 A 
ATOM     15  C   UNL     1     -14.842  13.537 133.478  1.00  0.00     0.039 A 
ATOM     16  C   UNL     1     -15.744  13.991 132.514  1.00  0.00     0.003 A 
ATOM     17  C   UNL     1     -13.974  14.002 130.861  1.00  0.00     0.011 A 
ATOM     18  C   UNL     1     -15.310  14.222 131.207  1.00  0.00     0.001 A 
ATOM     19  F   UNL     1     -12.652  12.863 134.096  1.00  0.00    -0.207 F 
ENDBRANCH   1  13
BRANCH  11  20
ATOM     20  C   UNL     1     -10.782  15.479 132.322  1.00  0.00     0.046 A 
ATOM     21  C   UNL     1     -11.761  16.459 132.555  1.00  0.00     0.026 A 
ATOM     22  C   UNL     1      -9.657  15.418 133.160  1.00  0.00     0.026 A 
ATOM     23  C   UNL     1     -11.619  17.358 133.616  1.00  0.00     0.002 A 
ATOM     24  C   UNL     1      -9.517  16.319 134.219  1.00  0.00     0.002 A 
ATOM     25  C   UNL     1     -10.497  17.288 134.448  1.00  0.00     0.000 A 
ENDBRANCH  11  20
TORSDOF 2
ENDMDL
