MODEL 1
REMARK VINA RESULT:   -17.674      0.000      0.000
REMARK INTER + INTRA:         -21.348
REMARK INTER:                 -18.867
REMARK INTRA:                  -2.481
REMARK CONF_INDEPENDENT:        1.193
REMARK UNBOUND:                -2.481
REMARK SMILES O=C1c2ccccc2N[C@@H](c2ccccc2F)N1c1ccccc1
REMARK SMILES IDX 10 1 9 2 8 3 7 4 6 5 5 6 4 7 3 8 2 9 1 10 18 11 11 13 16 14
REMARK SMILES IDX 15 15 12 16 14 17 13 18 17 19 19 20 20 21 24 22 21 23 23 24
REMARK SMILES IDX 22 25
REMARK H PARENT 9 12
ROOT
ATOM      1  C   UNL     1     -19.102  17.569 129.305  1.00  0.00     0.219 C 
ATOM      2  N   UNL     1     -20.248  18.486 129.298  1.00  0.00    -0.360 N 
ATOM      3  C   UNL     1     -21.025  18.796 128.134  1.00  0.00     0.049 A 
ATOM      4  C   UNL     1     -22.201  19.551 128.258  1.00  0.00     0.026 A 
ATOM      5  C   UNL     1     -22.962  19.859 127.128  1.00  0.00     0.002 A 
ATOM      6  C   UNL     1     -22.552  19.419 125.868  1.00  0.00     0.001 A 
ATOM      7  C   UNL     1     -21.380  18.672 125.736  1.00  0.00     0.016 A 
ATOM      8  C   UNL     1     -20.610  18.356 126.871  1.00  0.00     0.063 A 
ATOM      9  C   UNL     1     -19.367  17.581 126.763  1.00  0.00     0.262 C 
ATOM     10  O   UNL     1     -18.933  17.250 125.625  1.00  0.00    -0.269 OA
ATOM     11  N   UNL     1     -18.634  17.215 127.949  1.00  0.00    -0.283 N 
ATOM     12  H   UNL     1     -20.549  18.877 130.219  1.00  0.00     0.163 HD
ENDROOT
BRANCH   1  13
ATOM     13  C   UNL     1     -19.458  16.314 130.078  1.00  0.00     0.031 A 
ATOM     14  C   UNL     1     -18.899  16.056 131.346  1.00  0.00     0.130 A 
ATOM     15  C   UNL     1     -19.258  14.902 132.051  1.00  0.00     0.039 A 
ATOM     16  C   UNL     1     -20.382  15.399 129.540  1.00  0.00     0.011 A 
ATOM     17  C   UNL     1     -20.174  14.001 131.505  1.00  0.00     0.003 A 
ATOM     18  C   UNL     1     -20.735  14.250 130.251  1.00  0.00     0.001 A 
ATOM     19  F   UNL     1     -18.015  16.919 131.906  1.00  0.00    -0.207 F 
ENDBRANCH   1  13
BRANCH  11  20
ATOM     20  C   UNL     1     -17.444  16.412 127.826  1.00  0.00     0.046 A 
ATOM     21  C   UNL     1     -16.177  17.019 127.842  1.00  0.00     0.026 A 
ATOM     22  C   UNL     1     -17.539  15.021 127.650  1.00  0.00     0.026 A 
ATOM     23  C   UNL     1     -15.023  16.243 127.691  1.00  0.00     0.002 A 
ATOM     24  C   UNL     1     -16.384  14.250 127.500  1.00  0.00     0.002 A 
ATOM     25  C   UNL     1     -15.126  14.860 127.521  1.00  0.00     0.000 A 
ENDBRANCH  11  20
TORSDOF 2
REMARK SMILES O=C1c2ccccc2N[C@H](c2ccccc2F)N1c1ccccc1
REMARK SMILES IDX 10 1 9 2 8 3 7 4 6 5 5 6 4 7 3 8 2 9 1 10 18 11 11 13 16 14
REMARK SMILES IDX 15 15 14 16 12 17 13 18 17 19 19 20 20 21 24 22 21 23 23 24
REMARK SMILES IDX 22 25
REMARK H PARENT 9 12
ROOT
ATOM      1  C   UNL     1     -12.722  15.828 131.191  1.00  0.00     0.219 C 
ATOM      2  N   UNL     1     -12.415  16.724 132.311  1.00  0.00    -0.360 N 
ATOM      3  C   UNL     1     -11.219  16.654 133.097  1.00  0.00     0.049 A 
ATOM      4  C   UNL     1     -11.090  17.441 134.250  1.00  0.00     0.026 A 
ATOM      5  C   UNL     1      -9.925  17.380 135.019  1.00  0.00     0.002 A 
ATOM      6  C   UNL     1      -8.881  16.534 134.638  1.00  0.00     0.001 A 
ATOM      7  C   UNL     1      -9.000  15.750 133.489  1.00  0.00     0.016 A 
ATOM      8  C   UNL     1     -10.171  15.807 132.711  1.00  0.00     0.063 A 
ATOM      9  C   UNL     1     -10.322  15.003 131.491  1.00  0.00     0.262 C 
ATOM     10  O   UNL     1      -9.356  14.301 131.081  1.00  0.00    -0.269 OA
ATOM     11  N   UNL     1     -11.559  15.031 130.751  1.00  0.00    -0.283 N 
ATOM     12  H   UNL     1     -13.155  17.409 132.590  1.00  0.00     0.163 HD
ENDROOT
BRANCH   1  13
ATOM     13  C   UNL     1     -13.869  14.912 131.570  1.00  0.00     0.031 A 
ATOM     14  C   UNL     1     -13.739  13.975 132.615  1.00  0.00     0.130 A 
ATOM     15  C   UNL     1     -14.803  13.125 132.934  1.00  0.00     0.039 A 
ATOM     16  C   UNL     1     -16.001  13.198 132.219  1.00  0.00     0.003 A 
ATOM     17  C   UNL     1     -15.079  14.974 130.854  1.00  0.00     0.011 A 
ATOM     18  C   UNL     1     -16.137  14.120 131.180  1.00  0.00     0.001 A 
ATOM     19  F   UNL     1     -12.586  13.875 133.321  1.00  0.00    -0.207 F 
ENDBRANCH   1  13
BRANCH  11  20
ATOM     20  C   UNL     1     -11.704  14.197 129.585  1.00  0.00     0.046 A 
ATOM     21  C   UNL     1     -11.889  12.812 129.721  1.00  0.00     0.026 A 
ATOM     22  C   UNL     1     -11.622  14.758 128.300  1.00  0.00     0.026 A 
ATOM     23  C   UNL     1     -12.000  12.001 128.587  1.00  0.00     0.002 A 
ATOM     24  C   UNL     1     -11.731  13.945 127.168  1.00  0.00     0.002 A 
ATOM     25  C   UNL     1     -11.921  12.567 127.311  1.00  0.00     0.000 A 
ENDBRANCH  11  20
TORSDOF 2
ENDMDL
MODEL 2
REMARK VINA RESULT:   -17.607      1.124      3.731
REMARK INTER + INTRA:         -21.266
REMARK INTER:                 -18.801
REMARK INTRA:                  -2.465
REMARK CONF_INDEPENDENT:        1.193
REMARK UNBOUND:                -2.465
REMARK SMILES O=C1c2ccccc2N[C@@H](c2ccccc2F)N1c1ccccc1
REMARK SMILES IDX 10 1 9 2 8 3 7 4 6 5 5 6 4 7 3 8 2 9 1 10 18 11 11 13 16 14
REMARK SMILES IDX 15 15 12 16 14 17 13 18 17 19 19 20 20 21 24 22 21 23 23 24
REMARK SMILES IDX 22 25
REMARK H PARENT 9 12
ROOT
ATOM      1  C   UNL     1     -18.938  17.497 129.315  1.00  0.00     0.219 C 
ATOM      2  N   UNL     1     -20.105  18.386 129.352  1.00  0.00    -0.360 N 
ATOM      3  C   UNL     1     -20.918  18.697 128.214  1.00  0.00     0.049 A 
ATOM      4  C   UNL     1     -22.109  19.420 128.380  1.00  0.00     0.026 A 
ATOM      5  C   UNL     1     -22.905  19.730 127.275  1.00  0.00     0.002 A 
ATOM      6  C   UNL     1     -22.516  19.324 125.997  1.00  0.00     0.001 A 
ATOM      7  C   UNL     1     -21.329  18.608 125.823  1.00  0.00     0.016 A 
ATOM      8  C   UNL     1     -20.523  18.291 126.933  1.00  0.00     0.063 A 
ATOM      9  C   UNL     1     -19.265  17.549 126.781  1.00  0.00     0.262 C 
ATOM     10  O   UNL     1     -18.851  17.250 125.626  1.00  0.00    -0.269 OA
ATOM     11  N   UNL     1     -18.494  17.180 127.941  1.00  0.00    -0.283 N 
ATOM     12  H   UNL     1     -20.393  18.753 130.287  1.00  0.00     0.163 HD
ENDROOT
BRANCH   1  13
ATOM     13  C   UNL     1     -19.244  16.221 130.072  1.00  0.00     0.031 A 
ATOM     14  C   UNL     1     -18.458  15.819 131.172  1.00  0.00     0.130 A 
ATOM     15  C   UNL     1     -18.771  14.648 131.869  1.00  0.00     0.039 A 
ATOM     16  C   UNL     1     -20.346  15.431 129.696  1.00  0.00     0.011 A 
ATOM     17  C   UNL     1     -19.866  13.871 131.483  1.00  0.00     0.003 A 
ATOM     18  C   UNL     1     -20.652  14.263 130.398  1.00  0.00     0.001 A 
ATOM     19  F   UNL     1     -17.395  16.559 131.574  1.00  0.00    -0.207 F 
ENDBRANCH   1  13
BRANCH  11  20
ATOM     20  C   UNL     1     -17.288  16.409 127.774  1.00  0.00     0.046 A 
ATOM     21  C   UNL     1     -16.035  17.042 127.813  1.00  0.00     0.026 A 
ATOM     22  C   UNL     1     -17.356  15.027 127.533  1.00  0.00     0.026 A 
ATOM     23  C   UNL     1     -14.866  16.299 127.621  1.00  0.00     0.002 A 
ATOM     24  C   UNL     1     -16.185  14.288 127.342  1.00  0.00     0.002 A 
ATOM     25  C   UNL     1     -14.940  14.923 127.385  1.00  0.00     0.000 A 
ENDBRANCH  11  20
TORSDOF 2
REMARK SMILES O=C1c2ccccc2N[C@H](c2ccccc2F)N1c1ccccc1
REMARK SMILES IDX 10 1 9 2 8 3 7 4 6 5 5 6 4 7 3 8 2 9 1 10 18 11 11 13 16 14
REMARK SMILES IDX 15 15 14 16 12 17 13 18 17 19 19 20 20 21 24 22 21 23 23 24
REMARK SMILES IDX 22 25
REMARK H PARENT 9 12
ROOT
ATOM      1  C   UNL     1     -11.544  13.149 131.419  1.00  0.00     0.219 C 
ATOM      2  N   UNL     1     -11.453  12.210 130.296  1.00  0.00    -0.360 N 
ATOM      3  C   UNL     1     -11.043  12.574 128.972  1.00  0.00     0.049 A 
ATOM      4  C   UNL     1     -11.149  11.646 127.925  1.00  0.00     0.026 A 
ATOM      5  C   UNL     1     -10.748  11.993 126.632  1.00  0.00     0.002 A 
ATOM      6  C   UNL     1     -10.237  13.267 126.378  1.00  0.00     0.001 A 
ATOM      7  C   UNL     1     -10.125  14.196 127.416  1.00  0.00     0.016 A 
ATOM      8  C   UNL     1     -10.528  13.852 128.719  1.00  0.00     0.063 A 
ATOM      9  C   UNL     1     -10.412  14.802 129.834  1.00  0.00     0.262 C 
ATOM     10  O   UNL     1      -9.870  15.927 129.643  1.00  0.00    -0.269 OA
ATOM     11  N   UNL     1     -10.894  14.447 131.145  1.00  0.00    -0.283 N 
ATOM     12  H   UNL     1     -11.778  11.230 130.465  1.00  0.00     0.163 HD
ENDROOT
BRANCH   1  13
ATOM     13  C   UNL     1     -12.999  13.361 131.790  1.00  0.00     0.031 A 
ATOM     14  C   UNL     1     -13.965  13.663 130.809  1.00  0.00     0.130 A 
ATOM     15  C   UNL     1     -15.297  13.876 131.176  1.00  0.00     0.039 A 
ATOM     16  C   UNL     1     -15.680  13.793 132.517  1.00  0.00     0.003 A 
ATOM     17  C   UNL     1     -13.395  13.283 133.138  1.00  0.00     0.011 A 
ATOM     18  C   UNL     1     -14.730  13.498 133.496  1.00  0.00     0.001 A 
ATOM     19  F   UNL     1     -13.621  13.760 129.501  1.00  0.00    -0.207 F 
ENDBRANCH   1  13
BRANCH  11  20
ATOM     20  C   UNL     1     -10.817  15.411 132.212  1.00  0.00     0.046 A 
ATOM     21  C   UNL     1      -9.722  15.413 133.091  1.00  0.00     0.026 A 
ATOM     22  C   UNL     1     -11.858  16.334 132.407  1.00  0.00     0.026 A 
ATOM     23  C   UNL     1      -9.666  16.332 134.144  1.00  0.00     0.002 A 
ATOM     24  C   UNL     1     -11.799  17.250 133.461  1.00  0.00     0.002 A 
ATOM     25  C   UNL     1     -10.704  17.250 134.329  1.00  0.00     0.000 A 
ENDBRANCH  11  20
TORSDOF 2
ENDMDL
MODEL 3
REMARK VINA RESULT:   -17.451      1.837      3.718
REMARK INTER + INTRA:         -20.842
REMARK INTER:                 -18.644
REMARK INTRA:                  -2.198
REMARK CONF_INDEPENDENT:        1.193
REMARK UNBOUND:                -2.198
REMARK SMILES O=C1c2ccccc2N[C@@H](c2ccccc2F)N1c1ccccc1
REMARK SMILES IDX 10 1 9 2 8 3 7 4 6 5 5 6 4 7 3 8 2 9 1 10 18 11 11 13 16 14
REMARK SMILES IDX 15 15 12 16 14 17 13 18 17 19 19 20 20 21 24 22 21 23 23 24
REMARK SMILES IDX 22 25
REMARK H PARENT 9 12
ROOT
ATOM      1  C   UNL     1     -19.630  17.940 129.300  1.00  0.00     0.219 C 
ATOM      2  N   UNL     1     -20.843  18.765 129.273  1.00  0.00    -0.360 N 
ATOM      3  C   UNL     1     -21.625  19.010 128.098  1.00  0.00     0.049 A 
ATOM      4  C   UNL     1     -22.858  19.672 128.202  1.00  0.00     0.026 A 
ATOM      5  C   UNL     1     -23.625  19.917 127.060  1.00  0.00     0.002 A 
ATOM      6  C   UNL     1     -23.164  19.507 125.808  1.00  0.00     0.001 A 
ATOM      7  C   UNL     1     -21.935  18.852 125.695  1.00  0.00     0.016 A 
ATOM      8  C   UNL     1     -21.159  18.601 126.842  1.00  0.00     0.063 A 
ATOM      9  C   UNL     1     -19.858  17.924 126.755  1.00  0.00     0.262 C 
ATOM     10  O   UNL     1     -19.384  17.625 125.624  1.00  0.00    -0.269 OA
ATOM     11  N   UNL     1     -19.116  17.620 127.952  1.00  0.00    -0.283 N 
ATOM     12  H   UNL     1     -21.187  19.135 130.188  1.00  0.00     0.163 HD
ENDROOT
BRANCH   1  13
ATOM     13  C   UNL     1     -19.899  16.663 130.072  1.00  0.00     0.031 A 
ATOM     14  C   UNL     1     -20.378  15.506 129.424  1.00  0.00     0.130 A 
ATOM     15  C   UNL     1     -20.599  14.334 130.153  1.00  0.00     0.039 A 
ATOM     16  C   UNL     1     -19.643  16.615 131.455  1.00  0.00     0.011 A 
ATOM     17  C   UNL     1     -20.344  14.300 131.525  1.00  0.00     0.003 A 
ATOM     18  C   UNL     1     -19.866  15.439 132.175  1.00  0.00     0.001 A 
ATOM     19  F   UNL     1     -20.624  15.507 128.091  1.00  0.00    -0.207 F 
ENDBRANCH   1  13
BRANCH  11  20
ATOM     20  C   UNL     1     -17.866  16.911 127.849  1.00  0.00     0.046 A 
ATOM     21  C   UNL     1     -16.686  17.484 128.350  1.00  0.00     0.026 A 
ATOM     22  C   UNL     1     -17.808  15.660 127.212  1.00  0.00     0.026 A 
ATOM     23  C   UNL     1     -15.467  16.811 128.223  1.00  0.00     0.002 A 
ATOM     24  C   UNL     1     -16.588  14.990 127.088  1.00  0.00     0.002 A 
ATOM     25  C   UNL     1     -15.417  15.564 127.593  1.00  0.00     0.000 A 
ENDBRANCH  11  20
TORSDOF 2
REMARK SMILES O=C1c2ccccc2N[C@H](c2ccccc2F)N1c1ccccc1
REMARK SMILES IDX 10 1 9 2 8 3 7 4 6 5 5 6 4 7 3 8 2 9 1 10 18 11 11 13 16 14
REMARK SMILES IDX 15 15 14 16 12 17 13 18 17 19 19 20 20 21 24 22 21 23 23 24
REMARK SMILES IDX 22 25
REMARK H PARENT 9 12
ROOT
ATOM      1  C   UNL     1     -11.887  13.067 130.934  1.00  0.00     0.219 C 
ATOM      2  N   UNL     1     -12.910  13.267 131.966  1.00  0.00    -0.360 N 
ATOM      3  C   UNL     1     -14.285  13.561 131.691  1.00  0.00     0.049 A 
ATOM      4  C   UNL     1     -15.152  13.902 132.740  1.00  0.00     0.026 A 
ATOM      5  C   UNL     1     -16.495  14.188 132.480  1.00  0.00     0.002 A 
ATOM      6  C   UNL     1     -16.981  14.130 131.173  1.00  0.00     0.001 A 
ATOM      7  C   UNL     1     -16.125  13.787 130.123  1.00  0.00     0.016 A 
ATOM      8  C   UNL     1     -14.771  13.500 130.379  1.00  0.00     0.063 A 
ATOM      9  C   UNL     1     -13.849  13.125 129.298  1.00  0.00     0.262 C 
ATOM     10  O   UNL     1     -14.288  12.980 128.124  1.00  0.00    -0.269 OA
ATOM     11  N   UNL     1     -12.453  12.902 129.579  1.00  0.00    -0.283 N 
ATOM     12  H   UNL     1     -12.590  13.263 132.962  1.00  0.00     0.163 HD
ENDROOT
BRANCH   1  13
ATOM     13  C   UNL     1     -10.908  14.224 130.954  1.00  0.00     0.031 A 
ATOM     14  C   UNL     1     -11.297  15.499 131.414  1.00  0.00     0.130 A 
ATOM     15  C   UNL     1     -10.385  16.559 131.404  1.00  0.00     0.039 A 
ATOM     16  C   UNL     1      -9.083  16.362 130.936  1.00  0.00     0.003 A 
ATOM     17  C   UNL     1      -9.596  14.039 130.482  1.00  0.00     0.011 A 
ATOM     18  C   UNL     1      -8.691  15.105 130.476  1.00  0.00     0.001 A 
ATOM     19  F   UNL     1     -12.557  15.722 131.865  1.00  0.00    -0.207 F 
ENDBRANCH   1  13
BRANCH  11  20
ATOM     20  C   UNL     1     -11.556  12.584 128.498  1.00  0.00     0.046 A 
ATOM     21  C   UNL     1     -10.808  11.396 128.520  1.00  0.00     0.026 A 
ATOM     22  C   UNL     1     -11.393  13.481 127.429  1.00  0.00     0.026 A 
ATOM     23  C   UNL     1      -9.916  11.106 127.483  1.00  0.00     0.002 A 
ATOM     24  C   UNL     1     -10.499  13.188 126.395  1.00  0.00     0.002 A 
ATOM     25  C   UNL     1      -9.761  12.002 126.421  1.00  0.00     0.000 A 
ENDBRANCH  11  20
TORSDOF 2
ENDMDL
MODEL 4
REMARK VINA RESULT:   -17.408      1.981      9.343
REMARK INTER + INTRA:         -20.907
REMARK INTER:                 -18.602
REMARK INTRA:                  -2.306
REMARK CONF_INDEPENDENT:        1.193
REMARK UNBOUND:                -2.306
REMARK SMILES O=C1c2ccccc2N[C@@H](c2ccccc2F)N1c1ccccc1
REMARK SMILES IDX 10 1 9 2 8 3 7 4 6 5 5 6 4 7 3 8 2 9 1 10 18 11 11 13 16 14
REMARK SMILES IDX 15 15 12 16 14 17 13 18 17 19 19 20 20 21 24 22 21 23 23 24
REMARK SMILES IDX 22 25
REMARK H PARENT 9 12
ROOT
ATOM      1  C   UNL     1     -10.844  14.887 128.577  1.00  0.00     0.219 C 
ATOM      2  N   UNL     1      -9.626  15.488 129.133  1.00  0.00    -0.360 N 
ATOM      3  C   UNL     1      -9.501  15.954 130.483  1.00  0.00     0.049 A 
ATOM      4  C   UNL     1      -8.250  16.359 130.971  1.00  0.00     0.026 A 
ATOM      5  C   UNL     1      -8.120  16.816 132.285  1.00  0.00     0.002 A 
ATOM      6  C   UNL     1      -9.239  16.875 133.118  1.00  0.00     0.001 A 
ATOM      7  C   UNL     1     -10.490  16.478 132.637  1.00  0.00     0.016 A 
ATOM      8  C   UNL     1     -10.626  16.015 131.315  1.00  0.00     0.063 A 
ATOM      9  C   UNL     1     -11.929  15.601 130.778  1.00  0.00     0.262 C 
ATOM     10  O   UNL     1     -12.966  15.730 131.485  1.00  0.00    -0.269 OA
ATOM     11  N   UNL     1     -12.027  15.067 129.443  1.00  0.00    -0.283 N 
ATOM     12  H   UNL     1      -8.782  15.510 128.517  1.00  0.00     0.163 HD
ENDROOT
BRANCH   1  13
ATOM     13  C   UNL     1     -10.609  13.412 128.314  1.00  0.00     0.031 A 
ATOM     14  C   UNL     1     -10.700  12.463 129.354  1.00  0.00     0.130 A 
ATOM     15  C   UNL     1     -10.500  11.106 129.084  1.00  0.00     0.039 A 
ATOM     16  C   UNL     1     -10.323  12.970 127.010  1.00  0.00     0.011 A 
ATOM     17  C   UNL     1     -10.213  10.681 127.786  1.00  0.00     0.003 A 
ATOM     18  C   UNL     1     -10.125  11.612 126.750  1.00  0.00     0.001 A 
ATOM     19  F   UNL     1     -10.987  12.846 130.622  1.00  0.00    -0.207 F 
ENDBRANCH   1  13
BRANCH  11  20
ATOM     20  C   UNL     1     -13.306  14.620 128.952  1.00  0.00     0.046 A 
ATOM     21  C   UNL     1     -14.201  13.962 129.812  1.00  0.00     0.026 A 
ATOM     22  C   UNL     1     -13.654  14.802 127.603  1.00  0.00     0.026 A 
ATOM     23  C   UNL     1     -15.430  13.500 129.329  1.00  0.00     0.002 A 
ATOM     24  C   UNL     1     -14.883  14.339 127.125  1.00  0.00     0.002 A 
ATOM     25  C   UNL     1     -15.771  13.689 127.987  1.00  0.00     0.000 A 
ENDBRANCH  11  20
TORSDOF 2
REMARK SMILES O=C1c2ccccc2N[C@H](c2ccccc2F)N1c1ccccc1
REMARK SMILES IDX 10 1 9 2 8 3 7 4 6 5 5 6 4 7 3 8 2 9 1 10 18 11 11 13 16 14
REMARK SMILES IDX 15 15 14 16 12 17 13 18 17 19 19 20 20 21 24 22 21 23 23 24
REMARK SMILES IDX 22 25
REMARK H PARENT 9 12
ROOT
ATOM      1  C   UNL     1     -19.310  17.125 127.872  1.00  0.00     0.219 C 
ATOM      2  N   UNL     1     -18.254  17.530 126.937  1.00  0.00    -0.360 N 
ATOM      3  C   UNL     1     -16.876  17.688 127.296  1.00  0.00     0.049 A 
ATOM      4  C   UNL     1     -15.971  18.239 126.378  1.00  0.00     0.026 A 
ATOM      5  C   UNL     1     -14.625  18.394 126.721  1.00  0.00     0.002 A 
ATOM      6  C   UNL     1     -14.175  17.996 127.981  1.00  0.00     0.001 A 
ATOM      7  C   UNL     1     -15.070  17.442 128.900  1.00  0.00     0.016 A 
ATOM      8  C   UNL     1     -16.426  17.285 128.560  1.00  0.00     0.063 A 
ATOM      9  C   UNL     1     -17.389  16.695 129.501  1.00  0.00     0.262 C 
ATOM     10  O   UNL     1     -16.986  16.247 130.610  1.00  0.00    -0.269 OA
ATOM     11  N   UNL     1     -18.785  16.608 129.152  1.00  0.00    -0.283 N 
ATOM     12  H   UNL     1     -18.549  17.785 125.966  1.00  0.00     0.163 HD
ENDROOT
BRANCH   1  13
ATOM     13  C   UNL     1     -20.243  18.293 128.123  1.00  0.00     0.031 A 
ATOM     14  C   UNL     1     -19.923  19.292 129.065  1.00  0.00     0.130 A 
ATOM     15  C   UNL     1     -20.809  20.350 129.297  1.00  0.00     0.039 A 
ATOM     16  C   UNL     1     -22.017  20.422 128.599  1.00  0.00     0.003 A 
ATOM     17  C   UNL     1     -21.464  18.375 127.429  1.00  0.00     0.011 A 
ATOM     18  C   UNL     1     -22.343  19.436 127.667  1.00  0.00     0.001 A 
ATOM     19  F   UNL     1     -18.763  19.243 129.765  1.00  0.00    -0.207 F 
ENDBRANCH   1  13
BRANCH  11  20
ATOM     20  C   UNL     1     -19.720  16.073 130.107  1.00  0.00     0.046 A 
ATOM     21  C   UNL     1     -20.085  16.819 131.240  1.00  0.00     0.026 A 
ATOM     22  C   UNL     1     -20.247  14.782 129.934  1.00  0.00     0.026 A 
ATOM     23  C   UNL     1     -20.970  16.283 132.181  1.00  0.00     0.002 A 
ATOM     24  C   UNL     1     -21.131  14.250 130.877  1.00  0.00     0.002 A 
ATOM     25  C   UNL     1     -21.493  15.000 132.000  1.00  0.00     0.000 A 
ENDBRANCH  11  20
TORSDOF 2
ENDMDL
MODEL 5
REMARK VINA RESULT:   -17.170      1.242      3.802
REMARK INTER + INTRA:         -20.757
REMARK INTER:                 -18.364
REMARK INTRA:                  -2.394
REMARK CONF_INDEPENDENT:        1.193
REMARK UNBOUND:                -2.394
REMARK SMILES O=C1c2ccccc2N[C@@H](c2ccccc2F)N1c1ccccc1
REMARK SMILES IDX 10 1 9 2 8 3 7 4 6 5 5 6 4 7 3 8 2 9 1 10 18 11 11 13 16 14
REMARK SMILES IDX 15 15 12 16 14 17 13 18 17 19 19 20 20 21 24 22 21 23 23 24
REMARK SMILES IDX 22 25
REMARK H PARENT 9 12
ROOT
ATOM      1  C   UNL     1     -18.835  15.926 127.856  1.00  0.00     0.219 C 
ATOM      2  N   UNL     1     -17.664  15.080 127.596  1.00  0.00    -0.360 N 
ATOM      3  C   UNL     1     -16.319  15.569 127.517  1.00  0.00     0.049 A 
ATOM      4  C   UNL     1     -15.249  14.665 127.432  1.00  0.00     0.026 A 
ATOM      5  C   UNL     1     -13.935  15.133 127.353  1.00  0.00     0.002 A 
ATOM      6  C   UNL     1     -13.682  16.506 127.352  1.00  0.00     0.001 A 
ATOM      7  C   UNL     1     -14.742  17.412 127.430  1.00  0.00     0.016 A 
ATOM      8  C   UNL     1     -16.067  16.946 127.513  1.00  0.00     0.063 A 
ATOM      9  C   UNL     1     -17.204  17.875 127.587  1.00  0.00     0.262 C 
ATOM     10  O   UNL     1     -17.002  19.117 127.498  1.00  0.00    -0.269 OA
ATOM     11  N   UNL     1     -18.545  17.370 127.738  1.00  0.00    -0.283 N 
ATOM     12  H   UNL     1     -17.825  14.049 127.536  1.00  0.00     0.163 HD
ENDROOT
BRANCH   1  13
ATOM     13  C   UNL     1     -19.393  15.616 129.231  1.00  0.00     0.031 A 
ATOM     14  C   UNL     1     -20.442  14.688 129.399  1.00  0.00     0.130 A 
ATOM     15  C   UNL     1     -20.927  14.402 130.679  1.00  0.00     0.039 A 
ATOM     16  C   UNL     1     -18.843  16.238 130.366  1.00  0.00     0.011 A 
ATOM     17  C   UNL     1     -20.375  15.029 131.797  1.00  0.00     0.003 A 
ATOM     18  C   UNL     1     -19.334  15.945 131.641  1.00  0.00     0.001 A 
ATOM     19  F   UNL     1     -20.991  14.057 128.332  1.00  0.00    -0.207 F 
ENDBRANCH   1  13
BRANCH  11  20
ATOM     20  C   UNL     1     -19.641  18.298 127.859  1.00  0.00     0.046 A 
ATOM     21  C   UNL     1     -19.684  19.204 128.931  1.00  0.00     0.026 A 
ATOM     22  C   UNL     1     -20.693  18.280 126.928  1.00  0.00     0.026 A 
ATOM     23  C   UNL     1     -20.763  20.084 129.066  1.00  0.00     0.002 A 
ATOM     24  C   UNL     1     -21.769  19.162 127.067  1.00  0.00     0.002 A 
ATOM     25  C   UNL     1     -21.804  20.063 128.134  1.00  0.00     0.000 A 
ENDBRANCH  11  20
TORSDOF 2
REMARK SMILES O=C1c2ccccc2N[C@H](c2ccccc2F)N1c1ccccc1
REMARK SMILES IDX 10 1 9 2 8 3 7 4 6 5 5 6 4 7 3 8 2 9 1 10 18 11 11 13 16 14
REMARK SMILES IDX 15 15 14 16 12 17 13 18 17 19 19 20 20 21 24 22 21 23 23 24
REMARK SMILES IDX 22 25
REMARK H PARENT 9 12
ROOT
ATOM      1  C   UNL     1     -12.490  15.949 131.128  1.00  0.00     0.219 C 
ATOM      2  N   UNL     1     -12.210  16.855 132.247  1.00  0.00    -0.360 N 
ATOM      3  C   UNL     1     -11.068  16.746 133.106  1.00  0.00     0.049 A 
ATOM      4  C   UNL     1     -10.973  17.552 134.250  1.00  0.00     0.026 A 
ATOM      5  C   UNL     1      -9.861  17.453 135.091  1.00  0.00     0.002 A 
ATOM      6  C   UNL     1      -8.837  16.553 134.792  1.00  0.00     0.001 A 
ATOM      7  C   UNL     1      -8.923  15.750 133.652  1.00  0.00     0.016 A 
ATOM      8  C   UNL     1     -10.041  15.844 132.803  1.00  0.00     0.063 A 
ATOM      9  C   UNL     1     -10.155  15.022 131.590  1.00  0.00     0.262 C 
ATOM     10  O   UNL     1      -9.200  14.267 131.254  1.00  0.00    -0.269 OA
ATOM     11  N   UNL     1     -11.341  15.090 130.775  1.00  0.00    -0.283 N 
ATOM     12  H   UNL     1     -12.933  17.579 132.467  1.00  0.00     0.163 HD
ENDROOT
BRANCH   1  13
ATOM     13  C   UNL     1     -13.700  15.096 131.452  1.00  0.00     0.031 A 
ATOM     14  C   UNL     1     -13.660  14.135 132.483  1.00  0.00     0.130 A 
ATOM     15  C   UNL     1     -14.781  13.344 132.751  1.00  0.00     0.039 A 
ATOM     16  C   UNL     1     -15.948  13.498 131.999  1.00  0.00     0.003 A 
ATOM     17  C   UNL     1     -14.880  15.240 130.699  1.00  0.00     0.011 A 
ATOM     18  C   UNL     1     -15.996  14.444 130.974  1.00  0.00     0.001 A 
ATOM     19  F   UNL     1     -12.538  13.956 133.223  1.00  0.00    -0.207 F 
ENDBRANCH   1  13
BRANCH  11  20
ATOM     20  C   UNL     1     -11.455  14.239 129.619  1.00  0.00     0.046 A 
ATOM     21  C   UNL     1     -12.127  13.009 129.704  1.00  0.00     0.026 A 
ATOM     22  C   UNL     1     -10.858  14.614 128.403  1.00  0.00     0.026 A 
ATOM     23  C   UNL     1     -12.209  12.172 128.587  1.00  0.00     0.002 A 
ATOM     24  C   UNL     1     -10.941  13.774 127.289  1.00  0.00     0.002 A 
ATOM     25  C   UNL     1     -11.616  12.554 127.380  1.00  0.00     0.000 A 
ENDBRANCH  11  20
TORSDOF 2
ENDMDL
MODEL 6
REMARK VINA RESULT:   -17.170      1.436      9.123
REMARK INTER + INTRA:         -20.493
REMARK INTER:                 -18.364
REMARK INTRA:                  -2.129
REMARK CONF_INDEPENDENT:        1.193
REMARK UNBOUND:                -2.129
REMARK SMILES O=C1c2ccccc2N[C@@H](c2ccccc2F)N1c1ccccc1
REMARK SMILES IDX 10 1 9 2 8 3 7 4 6 5 5 6 4 7 3 8 2 9 1 10 18 11 11 13 16 14
REMARK SMILES IDX 15 15 12 16 14 17 13 18 17 19 19 20 20 21 24 22 21 23 23 24
REMARK SMILES IDX 22 25
REMARK H PARENT 9 12
ROOT
ATOM      1  C   UNL     1     -11.546  14.127 132.480  1.00  0.00     0.219 C 
ATOM      2  N   UNL     1     -11.125  14.888 133.662  1.00  0.00    -0.360 N 
ATOM      3  C   UNL     1     -10.153  15.941 133.639  1.00  0.00     0.049 A 
ATOM      4  C   UNL     1      -9.937  16.721 134.784  1.00  0.00     0.026 A 
ATOM      5  C   UNL     1      -8.991  17.748 134.770  1.00  0.00     0.002 A 
ATOM      6  C   UNL     1      -8.250  18.000 133.614  1.00  0.00     0.001 A 
ATOM      7  C   UNL     1      -8.455  17.223 132.470  1.00  0.00     0.016 A 
ATOM      8  C   UNL     1      -9.409  16.189 132.479  1.00  0.00     0.063 A 
ATOM      9  C   UNL     1      -9.640  15.349 131.295  1.00  0.00     0.262 C 
ATOM     10  O   UNL     1      -8.920  15.502 130.270  1.00  0.00    -0.269 OA
ATOM     11  N   UNL     1     -10.670  14.341 131.310  1.00  0.00    -0.283 N 
ATOM     12  H   UNL     1     -11.621  14.686 134.559  1.00  0.00     0.163 HD
ENDROOT
BRANCH   1  13
ATOM     13  C   UNL     1     -12.978  14.481 132.131  1.00  0.00     0.031 A 
ATOM     14  C   UNL     1     -13.379  15.823 131.967  1.00  0.00     0.130 A 
ATOM     15  C   UNL     1     -14.700  16.125 131.625  1.00  0.00     0.039 A 
ATOM     16  C   UNL     1     -13.925  13.458 131.939  1.00  0.00     0.011 A 
ATOM     17  C   UNL     1     -15.631  15.100 131.440  1.00  0.00     0.003 A 
ATOM     18  C   UNL     1     -15.243  13.769 131.597  1.00  0.00     0.001 A 
ATOM     19  F   UNL     1     -12.494  16.838 132.130  1.00  0.00    -0.207 F 
ENDBRANCH   1  13
BRANCH  11  20
ATOM     20  C   UNL     1     -10.914  13.562 130.123  1.00  0.00     0.046 A 
ATOM     21  C   UNL     1     -11.231  14.200 128.912  1.00  0.00     0.026 A 
ATOM     22  C   UNL     1     -10.876  12.158 130.172  1.00  0.00     0.026 A 
ATOM     23  C   UNL     1     -11.499  13.443 127.767  1.00  0.00     0.002 A 
ATOM     24  C   UNL     1     -11.143  11.406 129.026  1.00  0.00     0.002 A 
ATOM     25  C   UNL     1     -11.454  12.048 127.823  1.00  0.00     0.000 A 
ENDBRANCH  11  20
TORSDOF 2
REMARK SMILES O=C1c2ccccc2N[C@H](c2ccccc2F)N1c1ccccc1
REMARK SMILES IDX 10 1 9 2 8 3 7 4 6 5 5 6 4 7 3 8 2 9 1 10 18 11 11 13 16 14
REMARK SMILES IDX 15 15 14 16 12 17 13 18 17 19 19 20 20 21 24 22 21 23 23 24
REMARK SMILES IDX 22 25
REMARK H PARENT 9 12
ROOT
ATOM      1  C   UNL     1     -18.201  17.859 129.445  1.00  0.00     0.219 C 
ATOM      2  N   UNL     1     -16.768  17.569 129.565  1.00  0.00    -0.360 N 
ATOM      3  C   UNL     1     -15.943  17.120 128.482  1.00  0.00     0.049 A 
ATOM      4  C   UNL     1     -14.625  16.708 128.730  1.00  0.00     0.026 A 
ATOM      5  C   UNL     1     -13.814  16.272 127.679  1.00  0.00     0.002 A 
ATOM      6  C   UNL     1     -14.313  16.249 126.375  1.00  0.00     0.001 A 
ATOM      7  C   UNL     1     -15.622  16.663 126.120  1.00  0.00     0.016 A 
ATOM      8  C   UNL     1     -16.444  17.101 127.175  1.00  0.00     0.063 A 
ATOM      9  C   UNL     1     -17.822  17.553 126.936  1.00  0.00     0.262 C 
ATOM     10  O   UNL     1     -18.261  17.625 125.755  1.00  0.00    -0.269 OA
ATOM     11  N   UNL     1     -18.663  17.933 128.044  1.00  0.00    -0.283 N 
ATOM     12  H   UNL     1     -16.348  17.628 130.521  1.00  0.00     0.163 HD
ENDROOT
BRANCH   1  13
ATOM     13  C   UNL     1     -18.998  16.816 130.203  1.00  0.00     0.031 A 
ATOM     14  C   UNL     1     -19.185  15.520 129.681  1.00  0.00     0.130 A 
ATOM     15  C   UNL     1     -19.942  14.580 130.387  1.00  0.00     0.039 A 
ATOM     16  C   UNL     1     -20.519  14.918 131.613  1.00  0.00     0.003 A 
ATOM     17  C   UNL     1     -19.587  17.147 131.437  1.00  0.00     0.011 A 
ATOM     18  C   UNL     1     -20.342  16.200 132.136  1.00  0.00     0.001 A 
ATOM     19  F   UNL     1     -18.645  15.165 128.488  1.00  0.00    -0.207 F 
ENDBRANCH   1  13
BRANCH  11  20
ATOM     20  C   UNL     1     -20.026  18.325 127.794  1.00  0.00     0.046 A 
ATOM     21  C   UNL     1     -20.660  17.967 126.593  1.00  0.00     0.026 A 
ATOM     22  C   UNL     1     -20.722  19.103 128.734  1.00  0.00     0.026 A 
ATOM     23  C   UNL     1     -21.974  18.375 126.341  1.00  0.00     0.002 A 
ATOM     24  C   UNL     1     -22.034  19.510 128.478  1.00  0.00     0.002 A 
ATOM     25  C   UNL     1     -22.661  19.146 127.283  1.00  0.00     0.000 A 
ENDBRANCH  11  20
TORSDOF 2
ENDMDL
MODEL 7
REMARK VINA RESULT:   -17.114      1.478      5.260
REMARK INTER + INTRA:         -20.801
REMARK INTER:                 -18.307
REMARK INTRA:                  -2.494
REMARK CONF_INDEPENDENT:        1.193
REMARK UNBOUND:                -2.494
REMARK SMILES O=C1c2ccccc2N[C@@H](c2ccccc2F)N1c1ccccc1
REMARK SMILES IDX 10 1 9 2 8 3 7 4 6 5 5 6 4 7 3 8 2 9 1 10 18 11 11 13 16 14
REMARK SMILES IDX 15 15 12 16 14 17 13 18 17 19 19 20 20 21 24 22 21 23 23 24
REMARK SMILES IDX 22 25
REMARK H PARENT 9 12
ROOT
ATOM      1  C   UNL     1     -18.627  15.818 127.824  1.00  0.00     0.219 C 
ATOM      2  N   UNL     1     -17.452  15.001 127.501  1.00  0.00    -0.360 N 
ATOM      3  C   UNL     1     -16.119  15.516 127.387  1.00  0.00     0.049 A 
ATOM      4  C   UNL     1     -15.038  14.635 127.240  1.00  0.00     0.026 A 
ATOM      5  C   UNL     1     -13.736  15.128 127.127  1.00  0.00     0.002 A 
ATOM      6  C   UNL     1     -13.507  16.506 127.154  1.00  0.00     0.001 A 
ATOM      7  C   UNL     1     -14.579  17.390 127.294  1.00  0.00     0.016 A 
ATOM      8  C   UNL     1     -15.892  16.897 127.411  1.00  0.00     0.063 A 
ATOM      9  C   UNL     1     -17.041  17.803 127.549  1.00  0.00     0.262 C 
ATOM     10  O   UNL     1     -16.865  19.051 127.487  1.00  0.00    -0.269 OA
ATOM     11  N   UNL     1     -18.367  17.270 127.735  1.00  0.00    -0.283 N 
ATOM     12  H   UNL     1     -17.598  13.969 127.419  1.00  0.00     0.163 HD
ENDROOT
BRANCH   1  13
ATOM     13  C   UNL     1     -19.130  15.462 129.209  1.00  0.00     0.031 A 
ATOM     14  C   UNL     1     -18.347  15.710 130.355  1.00  0.00     0.130 A 
ATOM     15  C   UNL     1     -18.839  15.392 131.624  1.00  0.00     0.039 A 
ATOM     16  C   UNL     1     -20.410  14.899 129.366  1.00  0.00     0.011 A 
ATOM     17  C   UNL     1     -20.110  14.831 131.766  1.00  0.00     0.003 A 
ATOM     18  C   UNL     1     -20.894  14.585 130.637  1.00  0.00     0.001 A 
ATOM     19  F   UNL     1     -17.113  16.263 130.248  1.00  0.00    -0.207 F 
ENDBRANCH   1  13
BRANCH  11  20
ATOM     20  C   UNL     1     -19.474  18.174 127.919  1.00  0.00     0.046 A 
ATOM     21  C   UNL     1     -20.495  18.245 126.956  1.00  0.00     0.026 A 
ATOM     22  C   UNL     1     -19.524  19.019 129.039  1.00  0.00     0.026 A 
ATOM     23  C   UNL     1     -21.554  19.144 127.119  1.00  0.00     0.002 A 
ATOM     24  C   UNL     1     -20.583  19.916 129.198  1.00  0.00     0.002 A 
ATOM     25  C   UNL     1     -21.598  19.979 128.238  1.00  0.00     0.000 A 
ENDBRANCH  11  20
TORSDOF 2
REMARK SMILES O=C1c2ccccc2N[C@H](c2ccccc2F)N1c1ccccc1
REMARK SMILES IDX 10 1 9 2 8 3 7 4 6 5 5 6 4 7 3 8 2 9 1 10 18 11 11 13 16 14
REMARK SMILES IDX 15 15 14 16 12 17 13 18 17 19 19 20 20 21 24 22 21 23 23 24
REMARK SMILES IDX 22 25
REMARK H PARENT 9 12
ROOT
ATOM      1  C   UNL     1     -11.570  13.152 131.444  1.00  0.00     0.219 C 
ATOM      2  N   UNL     1     -11.472  12.214 130.320  1.00  0.00    -0.360 N 
ATOM      3  C   UNL     1     -11.053  12.579 128.999  1.00  0.00     0.049 A 
ATOM      4  C   UNL     1     -11.151  11.652 127.952  1.00  0.00     0.026 A 
ATOM      5  C   UNL     1     -10.742  12.000 126.661  1.00  0.00     0.002 A 
ATOM      6  C   UNL     1     -10.230  13.274 126.412  1.00  0.00     0.001 A 
ATOM      7  C   UNL     1     -10.125  14.202 127.451  1.00  0.00     0.016 A 
ATOM      8  C   UNL     1     -10.537  13.857 128.751  1.00  0.00     0.063 A 
ATOM      9  C   UNL     1     -10.428  14.807 129.867  1.00  0.00     0.262 C 
ATOM     10  O   UNL     1      -9.886  15.932 129.681  1.00  0.00    -0.269 OA
ATOM     11  N   UNL     1     -10.919  14.450 131.175  1.00  0.00    -0.283 N 
ATOM     12  H   UNL     1     -11.797  11.234 130.487  1.00  0.00     0.163 HD
ENDROOT
BRANCH   1  13
ATOM     13  C   UNL     1     -13.027  13.362 131.806  1.00  0.00     0.031 A 
ATOM     14  C   UNL     1     -13.988  13.662 130.817  1.00  0.00     0.130 A 
ATOM     15  C   UNL     1     -15.323  13.874 131.176  1.00  0.00     0.039 A 
ATOM     16  C   UNL     1     -15.714  13.792 132.514  1.00  0.00     0.003 A 
ATOM     17  C   UNL     1     -13.432  13.286 133.150  1.00  0.00     0.011 A 
ATOM     18  C   UNL     1     -14.769  13.500 133.499  1.00  0.00     0.001 A 
ATOM     19  F   UNL     1     -13.636  13.757 129.511  1.00  0.00    -0.207 F 
ENDBRANCH   1  13
BRANCH  11  20
ATOM     20  C   UNL     1     -10.850  15.414 132.243  1.00  0.00     0.046 A 
ATOM     21  C   UNL     1      -9.758  15.420 133.125  1.00  0.00     0.026 A 
ATOM     22  C   UNL     1     -11.896  16.332 132.436  1.00  0.00     0.026 A 
ATOM     23  C   UNL     1      -9.709  16.338 134.179  1.00  0.00     0.002 A 
ATOM     24  C   UNL     1     -11.844  17.247 133.492  1.00  0.00     0.002 A 
ATOM     25  C   UNL     1     -10.751  17.250 134.363  1.00  0.00     0.000 A 
ENDBRANCH  11  20
TORSDOF 2
ENDMDL
MODEL 8
REMARK VINA RESULT:   -17.097      1.620      8.954
REMARK INTER + INTRA:         -20.683
REMARK INTER:                 -18.290
REMARK INTRA:                  -2.393
REMARK CONF_INDEPENDENT:        1.193
REMARK UNBOUND:                -2.393
REMARK SMILES O=C1c2ccccc2N[C@@H](c2ccccc2F)N1c1ccccc1
REMARK SMILES IDX 10 1 9 2 8 3 7 4 6 5 5 6 4 7 3 8 2 9 1 10 18 11 11 13 16 14
REMARK SMILES IDX 15 15 12 16 14 17 13 18 17 19 19 20 20 21 24 22 21 23 23 24
REMARK SMILES IDX 22 25
REMARK H PARENT 9 12
ROOT
ATOM      1  C   UNL     1     -11.609  14.187 132.352  1.00  0.00     0.219 C 
ATOM      2  N   UNL     1     -11.138  14.900 133.545  1.00  0.00    -0.360 N 
ATOM      3  C   UNL     1     -10.162  15.949 133.523  1.00  0.00     0.049 A 
ATOM      4  C   UNL     1      -9.897  16.685 134.688  1.00  0.00     0.026 A 
ATOM      5  C   UNL     1      -8.946  17.708 134.675  1.00  0.00     0.002 A 
ATOM      6  C   UNL     1      -8.250  18.000 133.501  1.00  0.00     0.001 A 
ATOM      7  C   UNL     1      -8.504  17.268 132.338  1.00  0.00     0.016 A 
ATOM      8  C   UNL     1      -9.463  16.238 132.345  1.00  0.00     0.063 A 
ATOM      9  C   UNL     1      -9.744  15.445 131.140  1.00  0.00     0.262 C 
ATOM     10  O   UNL     1      -9.064  15.634 130.094  1.00  0.00    -0.269 OA
ATOM     11  N   UNL     1     -10.778  14.441 131.158  1.00  0.00    -0.283 N 
ATOM     12  H   UNL     1     -11.600  14.667 134.453  1.00  0.00     0.163 HD
ENDROOT
BRANCH   1  13
ATOM     13  C   UNL     1     -13.052  14.559 132.074  1.00  0.00     0.031 A 
ATOM     14  C   UNL     1     -13.388  15.811 131.518  1.00  0.00     0.130 A 
ATOM     15  C   UNL     1     -14.724  16.125 131.250  1.00  0.00     0.039 A 
ATOM     16  C   UNL     1     -14.078  13.636 132.345  1.00  0.00     0.011 A 
ATOM     17  C   UNL     1     -15.733  15.201 131.527  1.00  0.00     0.003 A 
ATOM     18  C   UNL     1     -15.410  13.958 132.074  1.00  0.00     0.001 A 
ATOM     19  F   UNL     1     -12.427  16.724 131.229  1.00  0.00    -0.207 F 
ENDBRANCH   1  13
BRANCH  11  20
ATOM     20  C   UNL     1     -11.073  13.709 129.952  1.00  0.00     0.046 A 
ATOM     21  C   UNL     1     -10.972  12.308 129.935  1.00  0.00     0.026 A 
ATOM     22  C   UNL     1     -11.427  14.388 128.775  1.00  0.00     0.026 A 
ATOM     23  C   UNL     1     -11.228  11.598 128.758  1.00  0.00     0.002 A 
ATOM     24  C   UNL     1     -11.682  13.675 127.601  1.00  0.00     0.002 A 
ATOM     25  C   UNL     1     -11.583  12.281 127.591  1.00  0.00     0.000 A 
ENDBRANCH  11  20
TORSDOF 2
REMARK SMILES O=C1c2ccccc2N[C@H](c2ccccc2F)N1c1ccccc1
REMARK SMILES IDX 10 1 9 2 8 3 7 4 6 5 5 6 4 7 3 8 2 9 1 10 18 11 11 13 16 14
REMARK SMILES IDX 15 15 14 16 12 17 13 18 17 19 19 20 20 21 24 22 21 23 23 24
REMARK SMILES IDX 22 25
REMARK H PARENT 9 12
ROOT
ATOM      1  C   UNL     1     -18.633  16.837 127.050  1.00  0.00     0.219 C 
ATOM      2  N   UNL     1     -17.582  17.367 126.174  1.00  0.00    -0.360 N 
ATOM      3  C   UNL     1     -16.180  17.150 126.375  1.00  0.00     0.049 A 
ATOM      4  C   UNL     1     -15.244  17.834 125.585  1.00  0.00     0.026 A 
ATOM      5  C   UNL     1     -13.875  17.625 125.774  1.00  0.00     0.002 A 
ATOM      6  C   UNL     1     -13.434  16.730 126.750  1.00  0.00     0.001 A 
ATOM      7  C   UNL     1     -14.359  16.042 127.538  1.00  0.00     0.016 A 
ATOM      8  C   UNL     1     -15.739  16.249 127.353  1.00  0.00     0.063 A 
ATOM      9  C   UNL     1     -16.737  15.532 128.158  1.00  0.00     0.262 C 
ATOM     10  O   UNL     1     -16.361  14.653 128.983  1.00  0.00    -0.269 OA
ATOM     11  N   UNL     1     -18.141  15.813 127.993  1.00  0.00    -0.283 N 
ATOM     12  H   UNL     1     -17.882  18.000 125.397  1.00  0.00     0.163 HD
ENDROOT
BRANCH   1  13
ATOM     13  C   UNL     1     -19.287  17.976 127.807  1.00  0.00     0.031 A 
ATOM     14  C   UNL     1     -18.763  18.429 129.036  1.00  0.00     0.130 A 
ATOM     15  C   UNL     1     -19.395  19.466 129.730  1.00  0.00     0.039 A 
ATOM     16  C   UNL     1     -20.548  20.059 129.212  1.00  0.00     0.003 A 
ATOM     17  C   UNL     1     -20.451  18.578 127.298  1.00  0.00     0.011 A 
ATOM     18  C   UNL     1     -21.075  19.615 127.998  1.00  0.00     0.001 A 
ATOM     19  F   UNL     1     -17.650  17.866 129.569  1.00  0.00    -0.207 F 
ENDBRANCH   1  13
BRANCH  11  20
ATOM     20  C   UNL     1     -19.100  15.136 128.827  1.00  0.00     0.046 A 
ATOM     21  C   UNL     1     -20.237  14.537 128.262  1.00  0.00     0.026 A 
ATOM     22  C   UNL     1     -18.927  15.103 130.221  1.00  0.00     0.026 A 
ATOM     23  C   UNL     1     -21.182  13.907 129.078  1.00  0.00     0.002 A 
ATOM     24  C   UNL     1     -19.873  14.473 131.034  1.00  0.00     0.002 A 
ATOM     25  C   UNL     1     -21.000  13.875 130.464  1.00  0.00     0.000 A 
ENDBRANCH  11  20
TORSDOF 2
ENDMDL
MODEL 9
REMARK VINA RESULT:   -16.998      1.669      9.660
REMARK INTER + INTRA:         -20.379
REMARK INTER:                 -18.191
REMARK INTRA:                  -2.188
REMARK CONF_INDEPENDENT:        1.193
REMARK UNBOUND:                -2.188
REMARK SMILES O=C1c2ccccc2N[C@@H](c2ccccc2F)N1c1ccccc1
REMARK SMILES IDX 10 1 9 2 8 3 7 4 6 5 5 6 4 7 3 8 2 9 1 10 18 11 11 13 16 14
REMARK SMILES IDX 15 15 12 16 14 17 13 18 17 19 19 20 20 21 24 22 21 23 23 24
REMARK SMILES IDX 22 25
REMARK H PARENT 9 12
ROOT
ATOM      1  C   UNL     1     -11.851  14.471 131.885  1.00  0.00     0.219 C 
ATOM      2  N   UNL     1     -11.615  15.169 133.154  1.00  0.00    -0.360 N 
ATOM      3  C   UNL     1     -10.478  16.002 133.417  1.00  0.00     0.049 A 
ATOM      4  C   UNL     1     -10.423  16.760 134.596  1.00  0.00     0.026 A 
ATOM      5  C   UNL     1      -9.318  17.572 134.860  1.00  0.00     0.002 A 
ATOM      6  C   UNL     1      -8.260  17.630 133.951  1.00  0.00     0.001 A 
ATOM      7  C   UNL     1      -8.306  16.874 132.777  1.00  0.00     0.016 A 
ATOM      8  C   UNL     1      -9.417  16.055 132.505  1.00  0.00     0.063 A 
ATOM      9  C   UNL     1      -9.489  15.241 131.284  1.00  0.00     0.262 C 
ATOM     10  O   UNL     1      -8.506  15.211 130.493  1.00  0.00    -0.269 OA
ATOM     11  N   UNL     1     -10.669  14.464 130.999  1.00  0.00    -0.283 N 
ATOM     12  H   UNL     1     -12.364  15.102 133.880  1.00  0.00     0.163 HD
ENDROOT
BRANCH   1  13
ATOM     13  C   UNL     1     -13.034  15.096 131.173  1.00  0.00     0.031 A 
ATOM     14  C   UNL     1     -14.331  14.557 131.304  1.00  0.00     0.130 A 
ATOM     15  C   UNL     1     -15.412  15.162 130.655  1.00  0.00     0.039 A 
ATOM     16  C   UNL     1     -12.850  16.248 130.387  1.00  0.00     0.011 A 
ATOM     17  C   UNL     1     -15.215  16.304 129.875  1.00  0.00     0.003 A 
ATOM     18  C   UNL     1     -13.935  16.845 129.742  1.00  0.00     0.001 A 
ATOM     19  F   UNL     1     -14.554  13.455 132.063  1.00  0.00    -0.207 F 
ENDBRANCH   1  13
BRANCH  11  20
ATOM     20  C   UNL     1     -10.741  13.711 129.772  1.00  0.00     0.046 A 
ATOM     21  C   UNL     1     -10.703  14.374 128.534  1.00  0.00     0.026 A 
ATOM     22  C   UNL     1     -10.888  12.315 129.801  1.00  0.00     0.026 A 
ATOM     23  C   UNL     1     -10.803  13.647 127.343  1.00  0.00     0.002 A 
ATOM     24  C   UNL     1     -10.988  11.592 128.609  1.00  0.00     0.002 A 
ATOM     25  C   UNL     1     -10.945  12.258 127.380  1.00  0.00     0.000 A 
ENDBRANCH  11  20
TORSDOF 2
REMARK SMILES O=C1c2ccccc2N[C@H](c2ccccc2F)N1c1ccccc1
REMARK SMILES IDX 10 1 9 2 8 3 7 4 6 5 5 6 4 7 3 8 2 9 1 10 18 11 11 13 16 14
REMARK SMILES IDX 15 15 14 16 12 17 13 18 17 19 19 20 20 21 24 22 21 23 23 24
REMARK SMILES IDX 22 25
REMARK H PARENT 9 12
ROOT
ATOM      1  C   UNL     1     -18.991  16.141 127.381  1.00  0.00     0.219 C 
ATOM      2  N   UNL     1     -18.724  15.147 128.426  1.00  0.00    -0.360 N 
ATOM      3  C   UNL     1     -19.238  15.223 129.761  1.00  0.00     0.049 A 
ATOM      4  C   UNL     1     -18.794  14.318 130.736  1.00  0.00     0.026 A 
ATOM      5  C   UNL     1     -19.293  14.385 132.040  1.00  0.00     0.002 A 
ATOM      6  C   UNL     1     -20.241  15.352 132.375  1.00  0.00     0.001 A 
ATOM      7  C   UNL     1     -20.693  16.254 131.409  1.00  0.00     0.016 A 
ATOM      8  C   UNL     1     -20.192  16.192 130.095  1.00  0.00     0.063 A 
ATOM      9  C   UNL     1     -20.655  17.120 129.054  1.00  0.00     0.262 C 
ATOM     10  O   UNL     1     -21.577  17.943 129.314  1.00  0.00    -0.269 OA
ATOM     11  N   UNL     1     -20.077  17.077 127.734  1.00  0.00    -0.283 N 
ATOM     12  H   UNL     1     -18.058  14.375 128.192  1.00  0.00     0.163 HD
ENDROOT
BRANCH   1  13
ATOM     13  C   UNL     1     -17.720  16.907 127.069  1.00  0.00     0.031 A 
ATOM     14  C   UNL     1     -17.353  18.045 127.817  1.00  0.00     0.130 A 
ATOM     15  C   UNL     1     -16.188  18.749 127.499  1.00  0.00     0.039 A 
ATOM     16  C   UNL     1     -15.381  18.333 126.438  1.00  0.00     0.003 A 
ATOM     17  C   UNL     1     -16.902  16.499 126.001  1.00  0.00     0.011 A 
ATOM     18  C   UNL     1     -15.738  17.210 125.690  1.00  0.00     0.001 A 
ATOM     19  F   UNL     1     -18.122  18.478 128.847  1.00  0.00    -0.207 F 
ENDBRANCH   1  13
BRANCH  11  20
ATOM     20  C   UNL     1     -20.509  18.028 126.742  1.00  0.00     0.046 A 
ATOM     21  C   UNL     1     -20.929  19.312 127.123  1.00  0.00     0.026 A 
ATOM     22  C   UNL     1     -20.551  17.665 125.386  1.00  0.00     0.026 A 
ATOM     23  C   UNL     1     -21.376  20.222 126.160  1.00  0.00     0.002 A 
ATOM     24  C   UNL     1     -21.000  18.576 124.426  1.00  0.00     0.002 A 
ATOM     25  C   UNL     1     -21.412  19.854 124.812  1.00  0.00     0.000 A 
ENDBRANCH  11  20
TORSDOF 2
ENDMDL
