MODEL 1
REMARK VINA RESULT:   -14.199      0.000      0.000
REMARK INTER + INTRA:         -18.403
REMARK INTER:                 -16.287
REMARK INTRA:                  -2.116
REMARK CONF_INDEPENDENT:        2.088
REMARK UNBOUND:                -2.116
REMARK Flexibility Score: inf
REMARK Active torsions [ 7 ] -> [ 7 ]
ROOT
ATOM      1  C1  LIG L   1      15.778  54.222  12.176  1.00  0.00     0.038 A 
ATOM      2  C2  LIG L   1      16.908  54.146  11.243  1.00  0.00    -0.029 A 
ATOM      3  C3  LIG L   1      17.917  53.153  11.481  1.00  0.00     0.007 A 
ATOM      4  C4  LIG L   1      17.816  52.256  12.606  1.00  0.00     0.024 A 
ATOM      5  C5  LIG L   1      16.717  52.326  13.511  1.00  0.00     0.035 A 
ATOM      6  C6  LIG L   1      15.693  53.332  13.277  1.00  0.00     0.047 A 
ATOM      7  C7  LIG L   1      17.065  55.076  10.018  1.00  0.00     0.045 C 
ENDROOT
BRANCH    1    8
ATOM      8  N1  LIG L   1      14.766  55.169  11.999  1.00  0.00    -0.283 N 
ATOM      9  H1  LIG L   1      13.943  54.918  11.520  1.00  0.00     0.155 HD
BRANCH    8   10
ATOM     10  C8  LIG L   1      14.908  56.458  12.489  1.00  0.00     0.220 A 
ATOM     11  C9  LIG L   1      13.930  58.608  12.798  1.00  0.00     0.077 A 
ATOM     12 C10  LIG L   1      15.123  59.085  13.436  1.00  0.00     0.048 A 
ATOM     13  N2  LIG L   1      13.869  57.307  12.350  1.00  0.00    -0.214 NA
ATOM     14 C11  LIG L   1      16.196  58.175  13.570  1.00  0.00     0.116 A 
ATOM     15  N3  LIG L   1      16.073  56.886  13.098  1.00  0.00    -0.223 NA
BRANCH   11   16
ATOM     16 C12  LIG L   1      12.712  59.451  12.580  1.00  0.00     0.019 A 
ATOM     17 C13  LIG L   1      11.213  61.401  13.138  1.00  0.00     0.020 A 
ATOM     18 C14  LIG L   1      12.403  60.621  13.391  1.00  0.00     0.013 A 
ATOM     19 C15  LIG L   1      10.343  60.991  12.067  1.00  0.00     0.111 A 
ATOM     20  N4  LIG L   1      10.652  59.863  11.292  1.00  0.00    -0.263 NA
ATOM     21 C16  LIG L   1      11.791  59.094  11.511  1.00  0.00     0.120 A 
ENDBRANCH   11   16
ENDBRANCH    8   10
ENDBRANCH    1    8
BRANCH    5   22
ATOM     22  N5  LIG L   1      16.681  51.389  14.607  1.00  0.00    -0.281 N 
ATOM     23 C17  LIG L   1      15.709  51.261  15.586  1.00  0.00     0.248 C 
ATOM     24  H2  LIG L   1      17.440  50.765  14.667  1.00  0.00     0.155 HD
ATOM     25  O1  LIG L   1      14.824  52.078  15.792  1.00  0.00    -0.270 OA
BRANCH   23   26
ATOM     26 C18  LIG L   1      15.732  50.059  16.473  1.00  0.00     0.037 A 
ATOM     27 C19  LIG L   1      16.980  49.343  16.752  1.00  0.00     0.013 A 
ATOM     28 C20  LIG L   1      14.491  49.593  17.054  1.00  0.00     0.013 A 
ATOM     29 C21  LIG L   1      16.971  48.176  17.597  1.00  0.00     0.002 A 
ATOM     30 C22  LIG L   1      14.486  48.449  17.883  1.00  0.00     0.002 A 
ATOM     31 C23  LIG L   1      15.709  47.717  18.172  1.00  0.00    -0.064 A 
BRANCH   31   32
ATOM     32 C24  LIG L   1      15.602  46.469  19.068  1.00  0.00    -0.043 C 
BRANCH   32   33
ATOM     33  N6  LIG L   1      16.651  46.288  20.115  1.00  0.00     0.380 N 
ATOM     34 C25  LIG L   1      16.645  47.448  21.080  1.00  0.00    -0.097 C 
ATOM     35 C26  LIG L   1      16.482  44.970  20.876  1.00  0.00    -0.097 C 
ATOM     36  H3  LIG L   1      17.551  46.256  19.636  1.00  0.00    -0.082 HD
ATOM     37 C27  LIG L   1      17.744  47.289  22.167  1.00  0.00    -0.098 C 
ATOM     38 C28  LIG L   1      17.601  44.786  21.952  1.00  0.00    -0.098 C 
ATOM     39  N7  LIG L   1      17.579  45.974  22.915  1.00  0.00     0.375 N 
ATOM     40 C29  LIG L   1      18.592  45.776  23.963  1.00  0.00    -0.096 C 
ATOM     41  H4  LIG L   1      16.669  46.028  23.374  1.00  0.00    -0.082 HD
ENDBRANCH   32   33
ENDBRANCH   31   32
ENDBRANCH   23   26
ENDBRANCH    5   22
TORSDOF 7
BEGIN_RES THR A 315
REMARK INDEX MAP 3 1 15 2 17 3 18 4 22 5
ROOT
ATOM      1  CA  THR A 315      13.079  52.503   8.093  1.00  0.00     0.199 C 
ENDROOT
BRANCH   1   2
ATOM      2  CB  THR A 315      13.429  52.900   9.553  1.00  0.00     0.143 C 
ATOM      3 CG2  THR A 315      14.210  51.843  10.251  1.00  0.00     0.041 C 
BRANCH   2   4
ATOM      4 OG1  THR A 315      14.146  54.140   9.547  1.00  0.00    -0.389 OA
ATOM      5 HG1  THR A 315      14.447  54.286   8.777  1.00  0.00     0.211 HD
ENDBRANCH   2   4
ENDBRANCH   1   2
END_RES THR A 315
ENDMDL
MODEL 2
REMARK VINA RESULT:   -13.995      1.163      1.777
REMARK INTER + INTRA:         -18.125
REMARK INTER:                 -16.083
REMARK INTRA:                  -2.041
REMARK CONF_INDEPENDENT:        2.088
REMARK UNBOUND:                -2.041
REMARK Flexibility Score: inf
REMARK Active torsions [ 7 ] -> [ 7 ]
ROOT
ATOM      1  C1  LIG L   1      15.724  54.314  12.096  1.00  0.00     0.038 A 
ATOM      2  C2  LIG L   1      16.739  54.267  11.037  1.00  0.00    -0.029 A 
ATOM      3  C3  LIG L   1      17.814  53.326  11.169  1.00  0.00     0.007 A 
ATOM      4  C4  LIG L   1      17.888  52.450  12.312  1.00  0.00     0.024 A 
ATOM      5  C5  LIG L   1      16.902  52.490  13.341  1.00  0.00     0.035 A 
ATOM      6  C6  LIG L   1      15.812  53.444  13.214  1.00  0.00     0.047 A 
ATOM      7  C7  LIG L   1      16.706  55.177   9.787  1.00  0.00     0.045 C 
ENDROOT
BRANCH    1    8
ATOM      8  N1  LIG L   1      14.655  55.210  12.026  1.00  0.00    -0.283 N 
ATOM      9  H1  LIG L   1      13.824  54.942  11.570  1.00  0.00     0.155 HD
BRANCH    8   10
ATOM     10  C8  LIG L   1      14.751  56.473  12.590  1.00  0.00     0.220 A 
ATOM     11  C9  LIG L   1      13.780  58.631  12.859  1.00  0.00     0.077 A 
ATOM     12 C10  LIG L   1      14.880  59.051  13.678  1.00  0.00     0.048 A 
ATOM     13  N2  LIG L   1      13.758  57.353  12.347  1.00  0.00    -0.214 NA
ATOM     14 C11  LIG L   1      15.906  58.109  13.918  1.00  0.00     0.116 A 
ATOM     15  N3  LIG L   1      15.827  56.846  13.374  1.00  0.00    -0.223 NA
BRANCH   11   16
ATOM     16 C12  LIG L   1      12.621  59.513  12.512  1.00  0.00     0.019 A 
ATOM     17 C13  LIG L   1      11.508  61.768  12.310  1.00  0.00     0.020 A 
ATOM     18 C14  LIG L   1      12.655  60.963  12.660  1.00  0.00     0.013 A 
ATOM     19 C15  LIG L   1      10.333  61.102  11.815  1.00  0.00     0.111 A 
ATOM     20  N4  LIG L   1      10.311  59.707  11.675  1.00  0.00    -0.263 NA
ATOM     21 C16  LIG L   1      11.401  58.905  12.002  1.00  0.00     0.120 A 
ENDBRANCH   11   16
ENDBRANCH    8   10
ENDBRANCH    1    8
BRANCH    5   22
ATOM     22  N5  LIG L   1      17.039  51.577  14.448  1.00  0.00    -0.281 N 
ATOM     23 C17  LIG L   1      16.142  51.347  15.478  1.00  0.00     0.248 C 
ATOM     24  H2  LIG L   1      17.872  51.053  14.475  1.00  0.00     0.155 HD
ATOM     25  O1  LIG L   1      15.174  52.052  15.722  1.00  0.00    -0.270 OA
BRANCH   23   26
ATOM     26 C18  LIG L   1      16.361  50.173  16.377  1.00  0.00     0.037 A 
ATOM     27 C19  LIG L   1      15.259  49.279  16.741  1.00  0.00     0.013 A 
ATOM     28 C20  LIG L   1      17.687  49.930  16.903  1.00  0.00     0.013 A 
ATOM     29 C21  LIG L   1      15.493  48.164  17.623  1.00  0.00     0.002 A 
ATOM     30 C22  LIG L   1      17.913  48.836  17.767  1.00  0.00     0.002 A 
ATOM     31 C23  LIG L   1      16.837  47.936  18.148  1.00  0.00    -0.064 A 
BRANCH   31   32
ATOM     32 C24  LIG L   1      17.175  46.783  19.113  1.00  0.00    -0.043 C 
BRANCH   32   33
ATOM     33  N6  LIG L   1      16.030  46.077  19.761  1.00  0.00     0.380 N 
ATOM     34 C25  LIG L   1      16.529  44.994  20.685  1.00  0.00    -0.097 C 
ATOM     35 C26  LIG L   1      15.117  47.042  20.524  1.00  0.00    -0.097 C 
ATOM     36  H3  LIG L   1      15.477  45.653  19.015  1.00  0.00    -0.082 HD
ATOM     37 C27  LIG L   1      15.351  44.232  21.355  1.00  0.00    -0.098 C 
ATOM     38 C28  LIG L   1      13.913  46.289  21.177  1.00  0.00    -0.098 C 
ATOM     39  N7  LIG L   1      14.441  45.194  22.105  1.00  0.00     0.375 N 
ATOM     40 C29  LIG L   1      13.312  44.523  22.765  1.00  0.00    -0.096 C 
ATOM     41  H4  LIG L   1      15.019  45.612  22.835  1.00  0.00    -0.082 HD
ENDBRANCH   32   33
ENDBRANCH   31   32
ENDBRANCH   23   26
ENDBRANCH    5   22
TORSDOF 7
BEGIN_RES THR A 315
REMARK INDEX MAP 3 1 15 2 17 3 18 4 22 5
ROOT
ATOM      1  CA  THR A 315      13.079  52.503   8.093  1.00  0.00     0.199 C 
ENDROOT
BRANCH   1   2
ATOM      2  CB  THR A 315      13.429  52.900   9.553  1.00  0.00     0.143 C 
ATOM      3 CG2  THR A 315      14.285  51.883  10.222  1.00  0.00     0.041 C 
BRANCH   2   4
ATOM      4 OG1  THR A 315      14.069  54.182   9.554  1.00  0.00    -0.389 OA
ATOM      5 HG1  THR A 315      14.409  54.326   8.800  1.00  0.00     0.211 HD
ENDBRANCH   2   4
ENDBRANCH   1   2
END_RES THR A 315
ENDMDL
MODEL 3
REMARK VINA RESULT:   -13.397      1.182      1.616
REMARK INTER + INTRA:         -17.509
REMARK INTER:                 -15.485
REMARK INTRA:                  -2.024
REMARK CONF_INDEPENDENT:        2.088
REMARK UNBOUND:                -2.024
REMARK Flexibility Score: inf
REMARK Active torsions [ 7 ] -> [ 7 ]
ROOT
ATOM      1  C1  LIG L   1      15.514  53.747  12.940  1.00  0.00     0.038 A 
ATOM      2  C2  LIG L   1      16.808  53.384  12.349  1.00  0.00    -0.029 A 
ATOM      3  C3  LIG L   1      17.566  52.335  12.969  1.00  0.00     0.007 A 
ATOM      4  C4  LIG L   1      17.063  51.658  14.139  1.00  0.00     0.024 A 
ATOM      5  C5  LIG L   1      15.806  52.005  14.712  1.00  0.00     0.035 A 
ATOM      6  C6  LIG L   1      15.034  53.070  14.090  1.00  0.00     0.047 A 
ATOM      7  C7  LIG L   1      17.393  54.072  11.094  1.00  0.00     0.045 C 
ENDROOT
BRANCH    1    8
ATOM      8  N1  LIG L   1      14.733  54.762  12.383  1.00  0.00    -0.283 N 
ATOM      9  H1  LIG L   1      14.061  54.539  11.698  1.00  0.00     0.155 HD
BRANCH    8   10
ATOM     10  C8  LIG L   1      14.891  56.080  12.784  1.00  0.00     0.220 A 
ATOM     11  C9  LIG L   1      13.951  58.264  12.921  1.00  0.00     0.077 A 
ATOM     12 C10  LIG L   1      15.141  58.763  13.549  1.00  0.00     0.048 A 
ATOM     13  N2  LIG L   1      13.873  56.937  12.564  1.00  0.00    -0.214 NA
ATOM     14 C11  LIG L   1      16.192  57.844  13.769  1.00  0.00     0.116 A 
ATOM     15  N3  LIG L   1      16.053  56.528  13.386  1.00  0.00    -0.223 NA
BRANCH   11   16
ATOM     16 C12  LIG L   1      12.755  59.112  12.618  1.00  0.00     0.019 A 
ATOM     17 C13  LIG L   1      11.504  61.303  12.640  1.00  0.00     0.020 A 
ATOM     18 C14  LIG L   1      12.683  60.528  12.955  1.00  0.00     0.013 A 
ATOM     19 C15  LIG L   1      10.406  60.639  11.988  1.00  0.00     0.111 A 
ATOM     20  N4  LIG L   1      10.488  59.276  11.667  1.00  0.00    -0.263 NA
ATOM     21 C16  LIG L   1      11.610  58.505  11.957  1.00  0.00     0.120 A 
ENDBRANCH   11   16
ENDBRANCH    8   10
ENDBRANCH    1    8
BRANCH    5   22
ATOM     22  N5  LIG L   1      15.366  51.276  15.876  1.00  0.00    -0.281 N 
ATOM     23 C17  LIG L   1      14.621  50.109  15.919  1.00  0.00     0.248 C 
ATOM     24  H2  LIG L   1      15.627  51.655  16.747  1.00  0.00     0.155 HD
ATOM     25  O1  LIG L   1      14.035  49.627  14.960  1.00  0.00    -0.270 OA
BRANCH   23   26
ATOM     26 C18  LIG L   1      14.498  49.378  17.217  1.00  0.00     0.037 A 
ATOM     27 C19  LIG L   1      15.627  48.635  17.781  1.00  0.00     0.013 A 
ATOM     28 C20  LIG L   1      13.231  49.402  17.917  1.00  0.00     0.013 A 
ATOM     29 C21  LIG L   1      15.476  47.925  19.026  1.00  0.00     0.002 A 
ATOM     30 C22  LIG L   1      13.087  48.706  19.138  1.00  0.00     0.002 A 
ATOM     31 C23  LIG L   1      14.189  47.956  19.717  1.00  0.00    -0.064 A 
BRANCH   31   32
ATOM     32 C24  LIG L   1      13.931  47.211  21.040  1.00  0.00    -0.043 C 
BRANCH   32   33
ATOM     33  N6  LIG L   1      15.021  46.326  21.549  1.00  0.00     0.380 N 
ATOM     34 C25  LIG L   1      15.262  45.179  20.598  1.00  0.00    -0.097 C 
ATOM     35 C26  LIG L   1      16.323  47.096  21.786  1.00  0.00    -0.097 C 
ATOM     36  H3  LIG L   1      14.711  45.956  22.448  1.00  0.00    -0.082 HD
ATOM     37 C27  LIG L   1      16.379  44.234  21.121  1.00  0.00    -0.098 C 
ATOM     38 C28  LIG L   1      17.445  46.159  22.340  1.00  0.00    -0.098 C 
ATOM     39  N7  LIG L   1      17.670  45.003  21.364  1.00  0.00     0.375 N 
ATOM     40 C29  LIG L   1      18.764  44.153  21.854  1.00  0.00    -0.096 C 
ATOM     41  H4  LIG L   1      17.950  45.371  20.454  1.00  0.00    -0.082 HD
ENDBRANCH   32   33
ENDBRANCH   31   32
ENDBRANCH   23   26
ENDBRANCH    5   22
TORSDOF 7
BEGIN_RES THR A 315
REMARK INDEX MAP 3 1 15 2 17 3 18 4 22 5
ROOT
ATOM      1  CA  THR A 315      13.079  52.503   8.093  1.00  0.00     0.199 C 
ENDROOT
BRANCH   1   2
ATOM      2  CB  THR A 315      13.429  52.900   9.553  1.00  0.00     0.143 C 
ATOM      3 CG2  THR A 315      14.251  51.864  10.235  1.00  0.00     0.041 C 
BRANCH   2   4
ATOM      4 OG1  THR A 315      14.104  54.163   9.551  1.00  0.00    -0.389 OA
ATOM      5 HG1  THR A 315      14.437  54.302   8.792  1.00  0.00     0.211 HD
ENDBRANCH   2   4
ENDBRANCH   1   2
END_RES THR A 315
ENDMDL
MODEL 4
REMARK VINA RESULT:   -11.923      1.521      2.190
REMARK INTER + INTRA:         -15.778
REMARK INTER:                 -14.011
REMARK INTRA:                  -1.767
REMARK CONF_INDEPENDENT:        2.088
REMARK UNBOUND:                -1.767
REMARK Flexibility Score: inf
REMARK Active torsions [ 7 ] -> [ 7 ]
ROOT
ATOM      1  C1  LIG L   1      16.986  54.343  12.433  1.00  0.00     0.038 A 
ATOM      2  C2  LIG L   1      16.701  53.899  11.063  1.00  0.00    -0.029 A 
ATOM      3  C3  LIG L   1      16.164  52.582  10.876  1.00  0.00     0.007 A 
ATOM      4  C4  LIG L   1      15.910  51.723  12.006  1.00  0.00     0.024 A 
ATOM      5  C5  LIG L   1      16.182  52.153  13.338  1.00  0.00     0.035 A 
ATOM      6  C6  LIG L   1      16.730  53.486  13.534  1.00  0.00     0.047 A 
ATOM      7  C7  LIG L   1      16.947  54.779   9.815  1.00  0.00     0.045 C 
ENDROOT
BRANCH    1    8
ATOM      8  N1  LIG L   1      17.512  55.613  12.679  1.00  0.00    -0.283 N 
ATOM      9  H1  LIG L   1      18.488  55.735  12.728  1.00  0.00     0.155 HD
BRANCH    8   10
ATOM     10  C8  LIG L   1      16.676  56.705  12.856  1.00  0.00     0.220 A 
ATOM     11  C9  LIG L   1      14.488  57.617  12.621  1.00  0.00     0.077 A 
ATOM     12 C10  LIG L   1      14.926  58.870  13.164  1.00  0.00     0.048 A 
ATOM     13  N2  LIG L   1      15.383  56.579  12.490  1.00  0.00    -0.214 NA
ATOM     14 C11  LIG L   1      16.284  58.975  13.541  1.00  0.00     0.116 A 
ATOM     15  N3  LIG L   1      17.131  57.900  13.382  1.00  0.00    -0.223 NA
BRANCH   11   16
ATOM     16 C12  LIG L   1      13.084  57.352  12.173  1.00  0.00     0.019 A 
ATOM     17 C13  LIG L   1      11.136  55.817  11.711  1.00  0.00     0.020 A 
ATOM     18 C14  LIG L   1      12.498  56.018  12.152  1.00  0.00     0.013 A 
ATOM     19 C15  LIG L   1      10.378  56.966  11.292  1.00  0.00     0.111 A 
ATOM     20  N4  LIG L   1      10.952  58.245  11.319  1.00  0.00    -0.263 NA
ATOM     21 C16  LIG L   1      12.260  58.470  11.740  1.00  0.00     0.120 A 
ENDBRANCH   11   16
ENDBRANCH    8   10
ENDBRANCH    1    8
BRANCH    5   22
ATOM     22  N5  LIG L   1      15.893  51.241  14.417  1.00  0.00    -0.281 N 
ATOM     23 C17  LIG L   1      15.033  51.432  15.485  1.00  0.00     0.248 C 
ATOM     24  H2  LIG L   1      16.366  50.378  14.391  1.00  0.00     0.155 HD
ATOM     25  O1  LIG L   1      14.539  52.507  15.791  1.00  0.00    -0.270 OA
BRANCH   23   26
ATOM     26 C18  LIG L   1      14.681  50.262  16.347  1.00  0.00     0.037 A 
ATOM     27 C19  LIG L   1      13.366  50.156  16.984  1.00  0.00     0.013 A 
ATOM     28 C20  LIG L   1      15.669  49.226  16.560  1.00  0.00     0.013 A 
ATOM     29 C21  LIG L   1      13.059  49.025  17.824  1.00  0.00     0.002 A 
ATOM     30 C22  LIG L   1      15.364  48.119  17.383  1.00  0.00     0.002 A 
ATOM     31 C23  LIG L   1      14.070  47.991  18.031  1.00  0.00    -0.064 A 
BRANCH   31   32
ATOM     32 C24  LIG L   1      13.836  46.761  18.928  1.00  0.00    -0.043 C 
BRANCH   32   33
ATOM     33  N6  LIG L   1      15.042  46.109  19.521  1.00  0.00     0.380 N 
ATOM     34 C25  LIG L   1      15.839  47.102  20.329  1.00  0.00    -0.097 C 
ATOM     35 C26  LIG L   1      14.673  44.901  20.387  1.00  0.00    -0.097 C 
ATOM     36  H3  LIG L   1      15.612  45.772  18.746  1.00  0.00    -0.082 HD
ATOM     37 C27  LIG L   1      17.111  46.448  20.938  1.00  0.00    -0.098 C 
ATOM     38 C28  LIG L   1      15.948  44.217  20.981  1.00  0.00    -0.098 C 
ATOM     39  N7  LIG L   1      16.743  45.242  21.791  1.00  0.00     0.375 N 
ATOM     40 C29  LIG L   1      17.911  44.588  22.399  1.00  0.00    -0.096 C 
ATOM     41  H4  LIG L   1      16.165  45.604  22.550  1.00  0.00    -0.082 HD
ENDBRANCH   32   33
ENDBRANCH   31   32
ENDBRANCH   23   26
ENDBRANCH    5   22
TORSDOF 7
BEGIN_RES THR A 315
REMARK INDEX MAP 3 1 15 2 17 3 18 4 22 5
ROOT
ATOM      1  CA  THR A 315      13.079  52.503   8.093  1.00  0.00     0.199 C 
ENDROOT
BRANCH   1   2
ATOM      2  CB  THR A 315      13.429  52.900   9.553  1.00  0.00     0.143 C 
ATOM      3 CG2  THR A 315      13.693  54.358   9.691  1.00  0.00     0.041 C 
BRANCH   2   4
ATOM      4 OG1  THR A 315      12.365  52.493  10.422  1.00  0.00    -0.389 OA
ATOM      5 HG1  THR A 315      11.683  52.316   9.966  1.00  0.00     0.211 HD
ENDBRANCH   2   4
ENDBRANCH   1   2
END_RES THR A 315
ENDMDL
MODEL 5
REMARK VINA RESULT:   -11.761      1.963      3.295
REMARK INTER + INTRA:         -15.737
REMARK INTER:                 -13.849
REMARK INTRA:                  -1.888
REMARK CONF_INDEPENDENT:        2.088
REMARK UNBOUND:                -1.888
REMARK Flexibility Score: inf
REMARK Active torsions [ 7 ] -> [ 7 ]
ROOT
ATOM      1  C1  LIG L   1      17.236  52.498  13.897  1.00  0.00     0.038 A 
ATOM      2  C2  LIG L   1      16.461  52.432  12.652  1.00  0.00    -0.029 A 
ATOM      3  C3  LIG L   1      15.259  51.649  12.643  1.00  0.00     0.007 A 
ATOM      4  C4  LIG L   1      14.827  50.950  13.828  1.00  0.00     0.024 A 
ATOM      5  C5  LIG L   1      15.576  51.015  15.039  1.00  0.00     0.035 A 
ATOM      6  C6  LIG L   1      16.797  51.806  15.054  1.00  0.00     0.047 A 
ATOM      7  C7  LIG L   1      16.873  53.165  11.354  1.00  0.00     0.045 C 
ENDROOT
BRANCH    1    8
ATOM      8  N1  LIG L   1      18.417  53.242  13.967  1.00  0.00    -0.283 N 
ATOM      9  H1  LIG L   1      19.283  52.792  13.839  1.00  0.00     0.155 HD
BRANCH    8   10
ATOM     10  C8  LIG L   1      18.381  54.606  14.214  1.00  0.00     0.220 A 
ATOM     11  C9  LIG L   1      17.195  56.658  13.981  1.00  0.00     0.077 A 
ATOM     12 C10  LIG L   1      18.242  57.368  14.658  1.00  0.00     0.048 A 
ATOM     13  N2  LIG L   1      17.306  55.300  13.786  1.00  0.00    -0.214 NA
ATOM     14 C11  LIG L   1      19.356  56.617  15.096  1.00  0.00     0.116 A 
ATOM     15  N3  LIG L   1      19.409  55.259  14.868  1.00  0.00    -0.223 NA
BRANCH   11   16
ATOM     16 C12  LIG L   1      15.955  57.313  13.455  1.00  0.00     0.019 A 
ATOM     17 C13  LIG L   1      14.363  59.260  13.266  1.00  0.00     0.020 A 
ATOM     18 C14  LIG L   1      15.570  58.675  13.802  1.00  0.00     0.013 A 
ATOM     19 C15  LIG L   1      13.551  58.462  12.385  1.00  0.00     0.111 A 
ATOM     20  N4  LIG L   1      13.932  57.153  12.057  1.00  0.00    -0.263 NA
ATOM     21 C16  LIG L   1      15.090  56.564  12.556  1.00  0.00     0.120 A 
ENDBRANCH   11   16
ENDBRANCH    8   10
ENDBRANCH    1    8
BRANCH    5   22
ATOM     22  N5  LIG L   1      15.076  50.297  16.185  1.00  0.00    -0.281 N 
ATOM     23 C17  LIG L   1      14.033  49.386  16.231  1.00  0.00     0.248 C 
ATOM     24  H2  LIG L   1      15.531  50.477  17.040  1.00  0.00     0.155 HD
ATOM     25  O1  LIG L   1      13.230  49.209  15.328  1.00  0.00    -0.270 OA
BRANCH   23   26
ATOM     26 C18  LIG L   1      13.848  48.562  17.464  1.00  0.00     0.037 A 
ATOM     27 C19  LIG L   1      12.746  48.822  18.394  1.00  0.00     0.013 A 
ATOM     28 C20  LIG L   1      14.788  47.496  17.743  1.00  0.00     0.013 A 
ATOM     29 C21  LIG L   1      12.601  48.024  19.585  1.00  0.00     0.002 A 
ATOM     30 C22  LIG L   1      14.641  46.715  18.910  1.00  0.00     0.002 A 
ATOM     31 C23  LIG L   1      13.560  46.955  19.852  1.00  0.00    -0.064 A 
BRANCH   31   32
ATOM     32 C24  LIG L   1      13.494  46.066  21.109  1.00  0.00    -0.043 C 
BRANCH   32   33
ATOM     33  N6  LIG L   1      14.787  45.723  21.772  1.00  0.00     0.380 N 
ATOM     34 C25  LIG L   1      15.437  44.545  21.088  1.00  0.00    -0.097 C 
ATOM     35 C26  LIG L   1      15.752  46.912  21.801  1.00  0.00    -0.097 C 
ATOM     36  H3  LIG L   1      14.573  45.474  22.737  1.00  0.00    -0.082 HD
ATOM     37 C27  LIG L   1      16.776  44.158  21.777  1.00  0.00    -0.098 C 
ATOM     38 C28  LIG L   1      17.090  46.541  22.519  1.00  0.00    -0.098 C 
ATOM     39  N7  LIG L   1      17.729  45.344  21.813  1.00  0.00     0.375 N 
ATOM     40 C29  LIG L   1      19.017  45.029  22.449  1.00  0.00    -0.096 C 
ATOM     41  H4  LIG L   1      17.917  45.579  20.838  1.00  0.00    -0.082 HD
ENDBRANCH   32   33
ENDBRANCH   31   32
ENDBRANCH   23   26
ENDBRANCH    5   22
TORSDOF 7
BEGIN_RES THR A 315
REMARK INDEX MAP 3 1 15 2 17 3 18 4 22 5
ROOT
ATOM      1  CA  THR A 315      13.079  52.503   8.093  1.00  0.00     0.199 C 
ENDROOT
BRANCH   1   2
ATOM      2  CB  THR A 315      13.429  52.900   9.553  1.00  0.00     0.143 C 
ATOM      3 CG2  THR A 315      14.234  54.150   9.618  1.00  0.00     0.041 C 
BRANCH   2   4
ATOM      4 OG1  THR A 315      12.220  53.036  10.309  1.00  0.00    -0.389 OA
ATOM      5 HG1  THR A 315      11.809  53.724  10.059  1.00  0.00     0.211 HD
ENDBRANCH   2   4
ENDBRANCH   1   2
END_RES THR A 315
ENDMDL
MODEL 6
REMARK VINA RESULT:   -11.680      2.872     10.903
REMARK INTER + INTRA:         -16.164
REMARK INTER:                 -13.768
REMARK INTRA:                  -2.396
REMARK CONF_INDEPENDENT:        2.088
REMARK UNBOUND:                -2.396
REMARK Flexibility Score: inf
REMARK Active torsions [ 7 ] -> [ 7 ]
ROOT
ATOM      1  C1  LIG L   1      16.012  48.575  18.162  1.00  0.00     0.038 A 
ATOM      2  C2  LIG L   1      17.374  48.294  18.633  1.00  0.00    -0.029 A 
ATOM      3  C3  LIG L   1      18.459  49.027  18.047  1.00  0.00     0.007 A 
ATOM      4  C4  LIG L   1      18.213  50.013  17.024  1.00  0.00     0.024 A 
ATOM      5  C5  LIG L   1      16.892  50.291  16.566  1.00  0.00     0.035 A 
ATOM      6  C6  LIG L   1      15.788  49.549  17.155  1.00  0.00     0.047 A 
ATOM      7  C7  LIG L   1      17.696  47.253  19.731  1.00  0.00     0.045 C 
ENDROOT
BRANCH    1    8
ATOM      8  N1  LIG L   1      14.915  47.892  18.693  1.00  0.00    -0.283 N 
ATOM      9  H1  LIG L   1      15.056  47.221  19.399  1.00  0.00     0.155 HD
BRANCH    8   10
ATOM     10  C8  LIG L   1      13.632  48.150  18.236  1.00  0.00     0.220 A 
ATOM     11  C9  LIG L   1      12.068  47.991  16.446  1.00  0.00     0.077 A 
ATOM     12 C10  LIG L   1      11.065  48.649  17.232  1.00  0.00     0.048 A 
ATOM     13  N2  LIG L   1      13.316  47.764  16.982  1.00  0.00    -0.214 NA
ATOM     14 C11  LIG L   1      11.421  49.041  18.542  1.00  0.00     0.116 A 
ATOM     15  N3  LIG L   1      12.689  48.788  19.020  1.00  0.00    -0.223 NA
BRANCH   11   16
ATOM     16 C12  LIG L   1      11.845  47.520  15.042  1.00  0.00     0.019 A 
ATOM     17 C13  LIG L   1      12.564  47.224  12.642  1.00  0.00     0.020 A 
ATOM     18 C14  LIG L   1      12.828  47.698  13.981  1.00  0.00     0.013 A 
ATOM     19 C15  LIG L   1      11.305  46.575  12.385  1.00  0.00     0.111 A 
ATOM     20  N4  LIG L   1      10.367  46.408  13.414  1.00  0.00    -0.263 NA
ATOM     21 C16  LIG L   1      10.595  46.852  14.713  1.00  0.00     0.120 A 
ENDBRANCH   11   16
ENDBRANCH    8   10
ENDBRANCH    1    8
BRANCH    5   22
ATOM     22  N5  LIG L   1      16.724  51.297  15.547  1.00  0.00    -0.281 N 
ATOM     23 C17  LIG L   1      15.621  52.103  15.320  1.00  0.00     0.248 C 
ATOM     24  H2  LIG L   1      17.487  51.426  14.939  1.00  0.00     0.155 HD
ATOM     25  O1  LIG L   1      14.523  51.931  15.828  1.00  0.00    -0.270 OA
BRANCH   23   26
ATOM     26 C18  LIG L   1      15.752  53.258  14.380  1.00  0.00     0.037 A 
ATOM     27 C19  LIG L   1      17.023  53.969  14.223  1.00  0.00     0.013 A 
ATOM     28 C20  LIG L   1      14.593  53.682  13.625  1.00  0.00     0.013 A 
ATOM     29 C21  LIG L   1      17.118  55.091  13.323  1.00  0.00     0.002 A 
ATOM     30 C22  LIG L   1      14.690  54.781  12.743  1.00  0.00     0.002 A 
ATOM     31 C23  LIG L   1      15.937  55.508  12.572  1.00  0.00    -0.064 A 
BRANCH   31   32
ATOM     32 C24  LIG L   1      15.941  56.707  11.605  1.00  0.00    -0.043 C 
BRANCH   32   33
ATOM     33  N6  LIG L   1      15.122  57.896  11.987  1.00  0.00     0.380 N 
ATOM     34 C25  LIG L   1      13.666  57.663  11.667  1.00  0.00    -0.097 C 
ATOM     35 C26  LIG L   1      15.285  58.254  13.467  1.00  0.00    -0.097 C 
ATOM     36  H3  LIG L   1      15.464  58.685  11.438  1.00  0.00    -0.082 HD
ATOM     37 C27  LIG L   1      12.799  58.898  12.038  1.00  0.00    -0.098 C 
ATOM     38 C28  LIG L   1      14.439  59.514  13.845  1.00  0.00    -0.098 C 
ATOM     39  N7  LIG L   1      12.969  59.257  13.508  1.00  0.00     0.375 N 
ATOM     40 C29  LIG L   1      12.164  60.418  13.915  1.00  0.00    -0.096 C 
ATOM     41  H4  LIG L   1      12.632  58.450  14.032  1.00  0.00    -0.082 HD
ENDBRANCH   32   33
ENDBRANCH   31   32
ENDBRANCH   23   26
ENDBRANCH    5   22
TORSDOF 7
BEGIN_RES THR A 315
REMARK INDEX MAP 3 1 15 2 17 3 18 4 22 5
ROOT
ATOM      1  CA  THR A 315      13.079  52.503   8.093  1.00  0.00     0.199 C 
ENDROOT
BRANCH   1   2
ATOM      2  CB  THR A 315      13.429  52.900   9.553  1.00  0.00     0.143 C 
ATOM      3 CG2  THR A 315      13.904  51.739  10.352  1.00  0.00     0.041 C 
BRANCH   2   4
ATOM      4 OG1  THR A 315      14.413  53.941   9.537  1.00  0.00    -0.389 OA
ATOM      5 HG1  THR A 315      14.443  54.287   8.772  1.00  0.00     0.211 HD
ENDBRANCH   2   4
ENDBRANCH   1   2
END_RES THR A 315
ENDMDL
