MODEL 1
REMARK VINA RESULT:    -8.261      0.000      0.000
REMARK INTER + INTRA:          -8.989
REMARK INTER:                  -8.858
REMARK INTRA:                  -0.131
REMARK CONF_INDEPENDENT:        0.597
REMARK UNBOUND:                -0.131
REMARK SMILES C[N@@H+]1CCC[C@H]1c1cccnc1
REMARK SMILES IDX 6 1 2 2 3 3 1 4 5 5 4 6 7 7 12 8 8 9 11 10 9 11 10 12
REMARK H PARENT 2 14
ROOT
ATOM      1  C   UNL     1      83.427  68.984  -9.215  1.00  0.00     0.216 C 
ATOM      2  N   UNL     1      83.097  69.266 -10.627  1.00  0.00    -0.331 N 
ATOM      3  C   UNL     1      84.389  69.452 -11.296  1.00  0.00     0.262 C 
ATOM      4  C   UNL     1      82.312  68.184 -11.246  1.00  0.00     0.333 C 
ATOM      5  C   UNL     1      84.761  69.684  -8.918  1.00  0.00     0.076 C 
ATOM      6  C   UNL     1      85.317  70.090 -10.274  1.00  0.00     0.068 C 
ENDROOT
BRANCH   1   7
ATOM      7  C   UNL     1      82.313  69.412  -8.271  1.00  0.00     0.028 A 
ATOM      8  C   UNL     1      82.505  70.436  -7.325  1.00  0.00     0.120 A 
ATOM      9  C   UNL     1      81.052  68.801  -8.344  1.00  0.00     0.013 A 
ATOM     10  N   UNL     1      81.488  70.809  -6.502  1.00  0.00    -0.264 NA
ATOM     11  C   UNL     1      80.025  69.204  -7.488  1.00  0.00     0.021 A 
ATOM     12  C   UNL     1      80.265  70.220  -6.563  1.00  0.00     0.111 A 
ATOM     13 WAT  UNL     1      81.957  72.993  -4.499  1.00  0.00     0.000 W 
ENDBRANCH   1   7
BRANCH   2  14
ATOM     14  H   UNL     1      82.556  70.159 -10.713  1.00  0.00     0.348 HD
ATOM     15 WAT  UNL     1      81.525  71.864 -10.878  1.00  0.00     0.000 W 
ENDBRANCH   2  14
TORSDOF 2
ENDMDL
MODEL 2
REMARK VINA RESULT:    -7.673      1.124      1.239
REMARK INTER + INTRA:          -8.413
REMARK INTER:                  -8.269
REMARK INTRA:                  -0.144
REMARK CONF_INDEPENDENT:        0.597
REMARK UNBOUND:                -0.144
REMARK SMILES C[N@@H+]1CCC[C@H]1c1cccnc1
REMARK SMILES IDX 6 1 2 2 3 3 1 4 5 5 4 6 7 7 12 8 8 9 11 10 9 11 10 12
REMARK H PARENT 2 14
ROOT
ATOM      1  C   UNL     1      84.228  68.971  -9.791  1.00  0.00     0.216 C 
ATOM      2  N   UNL     1      84.300  69.695 -11.076  1.00  0.00    -0.331 N 
ATOM      3  C   UNL     1      85.732  69.884 -11.334  1.00  0.00     0.262 C 
ATOM      4  C   UNL     1      83.640  68.963 -12.171  1.00  0.00     0.333 C 
ATOM      5  C   UNL     1      85.477  69.359  -8.987  1.00  0.00     0.076 C 
ATOM      6  C   UNL     1      86.395  70.059  -9.977  1.00  0.00     0.068 C 
ENDROOT
BRANCH   1   7
ATOM      7  C   UNL     1      82.934  69.258  -9.045  1.00  0.00     0.028 A 
ATOM      8  C   UNL     1      82.915  70.057  -7.886  1.00  0.00     0.120 A 
ATOM      9  C   UNL     1      81.716  68.744  -9.518  1.00  0.00     0.013 A 
ATOM     10  N   UNL     1      81.742  70.310  -7.246  1.00  0.00    -0.264 NA
ATOM     11  C   UNL     1      80.527  69.020  -8.841  1.00  0.00     0.021 A 
ATOM     12  C   UNL     1      80.561  69.812  -7.694  1.00  0.00     0.111 A 
ATOM     13 WAT  UNL     1      81.765  72.015  -4.777  1.00  0.00     0.000 W 
ENDBRANCH   1   7
BRANCH   2  14
ATOM     14  H   UNL     1      83.858  70.641 -10.997  1.00  0.00     0.348 HD
ATOM     15 WAT  UNL     1      83.014  72.448 -10.845  1.00  0.00     0.000 W 
ENDBRANCH   2  14
TORSDOF 2
ENDMDL
MODEL 3
REMARK VINA RESULT:    -7.489      2.051      2.490
REMARK INTER + INTRA:          -8.232
REMARK INTER:                  -8.085
REMARK INTRA:                  -0.146
REMARK CONF_INDEPENDENT:        0.597
REMARK UNBOUND:                -0.146
REMARK SMILES C[N@@H+]1CCC[C@H]1c1cccnc1
REMARK SMILES IDX 6 1 2 2 3 3 1 4 5 5 4 6 7 7 12 8 8 9 11 10 9 11 10 12
REMARK H PARENT 2 14
ROOT
ATOM      1  C   UNL     1      83.344  68.962  -9.090  1.00  0.00     0.216 C 
ATOM      2  N   UNL     1      83.172  69.265 -10.526  1.00  0.00    -0.331 N 
ATOM      3  C   UNL     1      84.530  69.482 -11.039  1.00  0.00     0.262 C 
ATOM      4  C   UNL     1      82.481  68.184 -11.249  1.00  0.00     0.333 C 
ATOM      5  C   UNL     1      84.623  69.676  -8.631  1.00  0.00     0.076 C 
ATOM      6  C   UNL     1      85.324  70.114  -9.907  1.00  0.00     0.068 C 
ENDROOT
BRANCH   1   7
ATOM      7  C   UNL     1      82.122  69.357  -8.273  1.00  0.00     0.028 A 
ATOM      8  C   UNL     1      80.962  68.559  -8.253  1.00  0.00     0.120 A 
ATOM      9  C   UNL     1      82.139  70.526  -7.497  1.00  0.00     0.013 A 
ATOM     10  N   UNL     1      79.889  68.928  -7.503  1.00  0.00    -0.264 NA
ATOM     11  C   UNL     1      81.023  70.881  -6.736  1.00  0.00     0.021 A 
ATOM     12  C   UNL     1      79.896  70.060  -6.753  1.00  0.00     0.111 A 
ATOM     13 WAT  UNL     1      77.442  67.192  -7.504  1.00  0.00     0.000 W 
ENDBRANCH   1   7
BRANCH   2  14
ATOM     14  H   UNL     1      82.631  70.152 -10.659  1.00  0.00     0.348 HD
ATOM     15 WAT  UNL     1      81.596  71.844 -10.913  1.00  0.00     0.000 W 
ENDBRANCH   2  14
TORSDOF 2
ENDMDL
MODEL 4
REMARK VINA RESULT:    -7.225      2.441      3.621
REMARK INTER + INTRA:          -7.975
REMARK INTER:                  -7.822
REMARK INTRA:                  -0.153
REMARK CONF_INDEPENDENT:        0.597
REMARK UNBOUND:                -0.153
REMARK SMILES C[N@@H+]1CCC[C@H]1c1cccnc1
REMARK SMILES IDX 6 1 2 2 3 3 1 4 5 5 4 6 7 7 12 8 8 9 11 10 9 11 10 12
REMARK H PARENT 2 14
ROOT
ATOM      1  C   UNL     1      84.475  69.148 -10.608  1.00  0.00     0.216 C 
ATOM      2  N   UNL     1      84.937  70.356 -11.321  1.00  0.00    -0.331 N 
ATOM      3  C   UNL     1      86.391  70.385 -11.129  1.00  0.00     0.262 C 
ATOM      4  C   UNL     1      84.575  70.338 -12.749  1.00  0.00     0.333 C 
ATOM      5  C   UNL     1      85.467  68.895  -9.464  1.00  0.00     0.076 C 
ATOM      6  C   UNL     1      86.657  69.797  -9.752  1.00  0.00     0.068 C 
ENDROOT
BRANCH   1   7
ATOM      7  C   UNL     1      83.039  69.284 -10.125  1.00  0.00     0.028 A 
ATOM      8  C   UNL     1      81.948  69.018 -10.974  1.00  0.00     0.120 A 
ATOM      9  C   UNL     1      82.772  69.660  -8.799  1.00  0.00     0.013 A 
ATOM     10  N   UNL     1      80.674  69.133 -10.512  1.00  0.00    -0.264 NA
ATOM     11  C   UNL     1      81.454  69.771  -8.351  1.00  0.00     0.021 A 
ATOM     12  C   UNL     1      80.408  69.501  -9.232  1.00  0.00     0.111 A 
ATOM     13 WAT  UNL     1      78.390  68.559 -12.371  1.00  0.00     0.000 W 
ENDBRANCH   1   7
BRANCH   2  14
ATOM     14  H   UNL     1      84.536  71.222 -10.889  1.00  0.00     0.348 HD
ATOM     15 WAT  UNL     1      83.771  72.875 -10.063  1.00  0.00     0.000 W 
ENDBRANCH   2  14
TORSDOF 2
ENDMDL
MODEL 5
REMARK VINA RESULT:    -7.211      1.905      2.479
REMARK INTER + INTRA:          -7.959
REMARK INTER:                  -7.807
REMARK INTRA:                  -0.152
REMARK CONF_INDEPENDENT:        0.597
REMARK UNBOUND:                -0.152
REMARK SMILES C[N@@H+]1CCC[C@H]1c1cccnc1
REMARK SMILES IDX 6 1 2 2 3 3 1 4 5 5 4 6 7 7 12 8 8 9 11 10 9 11 10 12
REMARK H PARENT 2 14
ROOT
ATOM      1  C   UNL     1      82.752  69.693  -9.750  1.00  0.00     0.216 C 
ATOM      2  N   UNL     1      83.896  68.784  -9.532  1.00  0.00    -0.331 N 
ATOM      3  C   UNL     1      84.220  68.247 -10.859  1.00  0.00     0.262 C 
ATOM      4  C   UNL     1      85.049  69.470  -8.924  1.00  0.00     0.333 C 
ATOM      5  C   UNL     1      81.986  69.164 -10.971  1.00  0.00     0.076 C 
ATOM      6  C   UNL     1      82.905  68.137 -11.613  1.00  0.00     0.068 C 
ENDROOT
BRANCH   1   7
ATOM      7  C   UNL     1      81.876  69.815  -8.512  1.00  0.00     0.028 A 
ATOM      8  C   UNL     1      82.203  70.697  -7.465  1.00  0.00     0.120 A 
ATOM      9  C   UNL     1      80.699  69.058  -8.401  1.00  0.00     0.013 A 
ATOM     10  N   UNL     1      81.395  70.798  -6.375  1.00  0.00    -0.264 NA
ATOM     11  C   UNL     1      79.888  69.181  -7.272  1.00  0.00     0.021 A 
ATOM     12  C   UNL     1      80.257  70.065  -6.258  1.00  0.00     0.111 A 
ATOM     13 WAT  UNL     1      82.145  72.690  -4.171  1.00  0.00     0.000 W 
ENDBRANCH   1   7
BRANCH   2  14
ATOM     14  H   UNL     1      83.625  67.982  -8.915  1.00  0.00     0.348 HD
ATOM     15 WAT  UNL     1      83.108  66.450  -7.738  1.00  0.00     0.000 W 
ENDBRANCH   2  14
TORSDOF 2
ENDMDL
MODEL 6
REMARK VINA RESULT:    -7.065      2.469      5.790
REMARK INTER + INTRA:          -7.822
REMARK INTER:                  -7.662
REMARK INTRA:                  -0.160
REMARK CONF_INDEPENDENT:        0.597
REMARK UNBOUND:                -0.160
REMARK SMILES C[N@@H+]1CCC[C@H]1c1cccnc1
REMARK SMILES IDX 6 1 2 2 3 3 1 4 5 5 4 6 7 7 12 8 8 9 11 10 9 11 10 12
REMARK H PARENT 2 14
ROOT
ATOM      1  C   UNL     1      83.321  68.763 -10.210  1.00  0.00     0.216 C 
ATOM      2  N   UNL     1      82.631  69.873  -9.522  1.00  0.00    -0.331 N 
ATOM      3  C   UNL     1      81.205  69.528  -9.567  1.00  0.00     0.262 C 
ATOM      4  C   UNL     1      83.105  70.059  -8.140  1.00  0.00     0.333 C 
ATOM      5  C   UNL     1      82.332  68.184 -11.231  1.00  0.00     0.076 C 
ATOM      6  C   UNL     1      80.981  68.785 -10.874  1.00  0.00     0.068 C 
ENDROOT
BRANCH   1   7
ATOM      7  C   UNL     1      84.630  69.210 -10.844  1.00  0.00     0.028 A 
ATOM      8  C   UNL     1      84.688  69.641 -12.183  1.00  0.00     0.120 A 
ATOM      9  C   UNL     1      85.813  69.222 -10.089  1.00  0.00     0.013 A 
ATOM     10  N   UNL     1      85.869  70.049 -12.721  1.00  0.00    -0.264 NA
ATOM     11  C   UNL     1      87.011  69.646 -10.667  1.00  0.00     0.021 A 
ATOM     12  C   UNL     1      87.019  70.059 -11.999  1.00  0.00     0.111 A 
ATOM     13 WAT  UNL     1      85.934  70.950 -15.582  1.00  0.00     0.000 W 
ENDBRANCH   1   7
BRANCH   2  14
ATOM     14  H   UNL     1      82.762  70.774 -10.041  1.00  0.00     0.348 HD
ATOM     15 WAT  UNL     1      83.012  72.492 -11.033  1.00  0.00     0.000 W 
ENDBRANCH   2  14
TORSDOF 2
ENDMDL
MODEL 7
REMARK VINA RESULT:    -6.978      3.059      5.719
REMARK INTER + INTRA:          -7.729
REMARK INTER:                  -7.574
REMARK INTRA:                  -0.155
REMARK CONF_INDEPENDENT:        0.597
REMARK UNBOUND:                -0.155
REMARK SMILES C[N@@H+]1CCC[C@H]1c1cccnc1
REMARK SMILES IDX 6 1 2 2 3 3 1 4 5 5 4 6 7 7 12 8 8 9 11 10 9 11 10 12
REMARK H PARENT 2 14
ROOT
ATOM      1  C   UNL     1      83.422  68.766  -9.930  1.00  0.00     0.216 C 
ATOM      2  N   UNL     1      82.721  69.946  -9.386  1.00  0.00    -0.331 N 
ATOM      3  C   UNL     1      81.293  69.673  -9.586  1.00  0.00     0.262 C 
ATOM      4  C   UNL     1      83.038  70.184  -7.968  1.00  0.00     0.333 C 
ATOM      5  C   UNL     1      82.528  68.182 -11.034  1.00  0.00     0.076 C 
ATOM      6  C   UNL     1      81.182  68.871 -10.873  1.00  0.00     0.068 C 
ENDROOT
BRANCH   1   7
ATOM      7  C   UNL     1      84.820  69.108 -10.422  1.00  0.00     0.028 A 
ATOM      8  C   UNL     1      85.816  68.122 -10.549  1.00  0.00     0.120 A 
ATOM      9  C   UNL     1      85.138  70.426 -10.785  1.00  0.00     0.013 A 
ATOM     10  N   UNL     1      87.055  68.452 -11.006  1.00  0.00    -0.264 NA
ATOM     11  C   UNL     1      86.417  70.737 -11.251  1.00  0.00     0.021 A 
ATOM     12  C   UNL     1      87.372  69.726 -11.354  1.00  0.00     0.111 A 
ATOM     13 WAT  UNL     1      89.140  66.309 -11.249  1.00  0.00     0.000 W 
ENDBRANCH   1   7
BRANCH   2  14
ATOM     14  H   UNL     1      82.964  70.809  -9.929  1.00  0.00     0.348 HD
ATOM     15 WAT  UNL     1      83.429  72.455 -10.965  1.00  0.00     0.000 W 
ENDBRANCH   2  14
TORSDOF 2
ENDMDL
MODEL 8
REMARK VINA RESULT:    -6.968      2.339      3.029
REMARK INTER + INTRA:          -7.722
REMARK INTER:                  -7.564
REMARK INTRA:                  -0.158
REMARK CONF_INDEPENDENT:        0.597
REMARK UNBOUND:                -0.158
REMARK SMILES C[N@@H+]1CCC[C@H]1c1cccnc1
REMARK SMILES IDX 6 1 2 2 3 3 1 4 5 5 4 6 7 7 12 8 8 9 11 10 9 11 10 12
REMARK H PARENT 2 14
ROOT
ATOM      1  C   UNL     1      85.455  69.513 -10.010  1.00  0.00     0.216 C 
ATOM      2  N   UNL     1      85.990  68.407 -10.829  1.00  0.00    -0.331 N 
ATOM      3  C   UNL     1      87.064  69.004 -11.630  1.00  0.00     0.262 C 
ATOM      4  C   UNL     1      86.479  67.286 -10.007  1.00  0.00     0.333 C 
ATOM      5  C   UNL     1      85.686  70.809 -10.801  1.00  0.00     0.076 C 
ATOM      6  C   UNL     1      86.640  70.434 -11.924  1.00  0.00     0.068 C 
ENDROOT
BRANCH   1   7
ATOM      7  C   UNL     1      83.994  69.299  -9.643  1.00  0.00     0.028 A 
ATOM      8  C   UNL     1      83.443  69.842  -8.467  1.00  0.00     0.120 A 
ATOM      9  C   UNL     1      83.152  68.565 -10.495  1.00  0.00     0.013 A 
ATOM     10  N   UNL     1      82.131  69.647  -8.170  1.00  0.00    -0.264 NA
ATOM     11  C   UNL     1      81.808  68.381 -10.165  1.00  0.00     0.021 A 
ATOM     12  C   UNL     1      81.311  68.934  -8.986  1.00  0.00     0.111 A 
ATOM     13 WAT  UNL     1      81.015  70.822  -5.645  1.00  0.00     0.000 W 
ENDBRANCH   1   7
BRANCH   2  14
ATOM     14  H   UNL     1      85.260  68.041 -11.486  1.00  0.00     0.348 HD
ATOM     15 WAT  UNL     1      83.868  67.344 -12.741  1.00  0.00     0.000 W 
ENDBRANCH   2  14
TORSDOF 2
ENDMDL
MODEL 9
REMARK VINA RESULT:    -6.931      3.448      5.773
REMARK INTER + INTRA:          -7.653
REMARK INTER:                  -7.527
REMARK INTRA:                  -0.126
REMARK CONF_INDEPENDENT:        0.597
REMARK UNBOUND:                -0.126
REMARK SMILES C[N@@H+]1CCC[C@H]1c1cccnc1
REMARK SMILES IDX 6 1 2 2 3 3 1 4 5 5 4 6 7 7 12 8 8 9 11 10 9 11 10 12
REMARK H PARENT 2 14
ROOT
ATOM      1  C   UNL     1      83.370  69.576  -9.839  1.00  0.00     0.216 C 
ATOM      2  N   UNL     1      82.513  68.375  -9.911  1.00  0.00    -0.331 N 
ATOM      3  C   UNL     1      81.481  68.575  -8.888  1.00  0.00     0.262 C 
ATOM      4  C   UNL     1      81.927  68.184 -11.249  1.00  0.00     0.333 C 
ATOM      5  C   UNL     1      83.298  70.091  -8.395  1.00  0.00     0.076 C 
ATOM      6  C   UNL     1      82.140  69.343  -7.754  1.00  0.00     0.068 C 
ENDROOT
BRANCH   1   7
ATOM      7  C   UNL     1      84.794  69.290 -10.292  1.00  0.00     0.028 A 
ATOM      8  C   UNL     1      85.337  67.992 -10.236  1.00  0.00     0.120 A 
ATOM      9  C   UNL     1      85.594  70.324 -10.804  1.00  0.00     0.013 A 
ATOM     10  N   UNL     1      86.608  67.761 -10.661  1.00  0.00    -0.264 NA
ATOM     11  C   UNL     1      86.895  70.058 -11.234  1.00  0.00     0.021 A 
ATOM     12  C   UNL     1      87.390  68.757 -11.153  1.00  0.00     0.111 A 
ATOM     13 WAT  UNL     1      87.714  64.976 -10.510  1.00  0.00     0.000 W 
ENDBRANCH   1   7
BRANCH   2  14
ATOM     14  H   UNL     1      83.054  67.514  -9.661  1.00  0.00     0.348 HD
ATOM     15 WAT  UNL     1      84.088  65.870  -9.183  1.00  0.00     0.000 W 
ENDBRANCH   2  14
TORSDOF 2
ENDMDL
