REMARK SMILES C[N@@H+]1CCC[C@H]1c1cccnc1
REMARK SMILES IDX 6 1 2 2 3 3 1 4 5 5 4 6 7 7 12 8 8 9 11 10 9 11 10 12
REMARK H PARENT 2 14
ROOT
ATOM      1  C   UNL     1      -0.271  -0.028   0.598  1.00  0.00     0.216 C 
ATOM      2  N   UNL     1      -1.290   0.378  -0.391  1.00  0.00    -0.331 N 
ATOM      3  C   UNL     1      -2.522  -0.303   0.023  1.00  0.00     0.262 C 
ATOM      4  C   UNL     1      -1.466   1.839  -0.448  1.00  0.00     0.333 C 
ATOM      5  C   UNL     1      -0.674  -1.417   1.113  1.00  0.00     0.076 C 
ATOM      6  C   UNL     1      -2.099  -1.632   0.628  1.00  0.00     0.068 C 
ENDROOT
BRANCH   1   7
ATOM      7  C   UNL     1       1.134  -0.000   0.015  1.00  0.00     0.028 A 
ATOM      8  C   UNL     1       1.502  -0.835  -1.057  1.00  0.00     0.120 A 
ATOM      9  C   UNL     1       2.094   0.887   0.527  1.00  0.00     0.013 A 
ATOM     10  N   UNL     1       2.761  -0.780  -1.569  1.00  0.00    -0.264 NA
ATOM     11  C   UNL     1       3.379   0.923  -0.018  1.00  0.00     0.021 A 
ATOM     12  C   UNL     1       3.697   0.072  -1.076  1.00  0.00     0.111 A 
ATOM     13 WAT  UNL     1       3.490  -2.589  -3.849  1.00  0.00     0.000 W 
ENDBRANCH   1   7
BRANCH   2  14
ATOM     14  H   UNL     1      -1.038   0.037  -1.349  1.00  0.00     0.348 HD
ATOM     15 WAT  UNL     1      -0.558  -0.614  -3.178  1.00  0.00     0.000 W 
ENDBRANCH   2  14
TORSDOF 2
