NCT
     RDKit          3D

 27 28  0  0  0  0  0  0  0  0999 V2000
   -0.2709   -0.0279    0.5975 C   0  0  2  0  0  0  0  0  0  0  0  0
   -1.2900    0.3778   -0.3906 N   0  0  0  0  0  4  0  0  0  0  0  0
   -2.5221   -0.3026    0.0230 C   0  0  0  0  0  0  0  0  0  0  0  0
   -1.4658    1.8388   -0.4481 C   0  0  0  0  0  0  0  0  0  0  0  0
    1.1341   -0.0003    0.0150 C   0  0  0  0  0  0  0  0  0  0  0  0
   -0.6738   -1.4170    1.1133 C   0  0  0  0  0  0  0  0  0  0  0  0
    1.5024   -0.8348   -1.0569 C   0  0  0  0  0  0  0  0  0  0  0  0
    2.0941    0.8875    0.5268 C   0  0  0  0  0  0  0  0  0  0  0  0
   -2.0995   -1.6316    0.6277 C   0  0  0  0  0  0  0  0  0  0  0  0
    2.7607   -0.7802   -1.5692 N   0  0  0  0  0  0  0  0  0  0  0  0
    3.3788    0.9232   -0.0178 C   0  0  0  0  0  0  0  0  0  0  0  0
    3.6972    0.0719   -1.0762 C   0  0  0  0  0  0  0  0  0  0  0  0
   -0.3133    0.6555    1.4796 H   0  0  0  0  0  0  0  0  0  0  0  0
   -1.0381    0.0366   -1.3493 H   0  0  0  0  0  0  0  0  0  0  0  0
   -3.0660    0.2847    0.7992 H   0  0  0  0  0  0  0  0  0  0  0  0
   -3.2018   -0.4608   -0.8443 H   0  0  0  0  0  0  0  0  0  0  0  0
   -2.2521    2.0999   -1.1897 H   0  0  0  0  0  0  0  0  0  0  0  0
   -0.5187    2.3247   -0.7686 H   0  0  0  0  0  0  0  0  0  0  0  0
   -1.7601    2.2530    0.5419 H   0  0  0  0  0  0  0  0  0  0  0  0
   -0.0180   -2.2281    0.7287 H   0  0  0  0  0  0  0  0  0  0  0  0
   -0.6366   -1.4422    2.2250 H   0  0  0  0  0  0  0  0  0  0  0  0
    0.7907   -1.5288   -1.4847 H   0  0  0  0  0  0  0  0  0  0  0  0
    1.8499    1.5534    1.3450 H   0  0  0  0  0  0  0  0  0  0  0  0
   -2.7742   -1.9272    1.4605 H   0  0  0  0  0  0  0  0  0  0  0  0
   -2.1165   -2.4207   -0.1562 H   0  0  0  0  0  0  0  0  0  0  0  0
    4.1206    1.6058    0.3762 H   0  0  0  0  0  0  0  0  0  0  0  0
    4.6891    0.0896   -1.5077 H   0  0  0  0  0  0  0  0  0  0  0  0
  1  2  1  0
  2  3  1  0
  2  4  1  0
  5  1  1  0
  1  6  1  0
  7  5  2  0
  5  8  1  0
  6  9  1  0
 10  7  1  0
  8 11  2  0
  9  3  1  0
 10 12  2  0
 11 12  1  0
  1 13  1  1
  2 14  1  0
  3 15  1  0
  3 16  1  0
  4 17  1  0
  4 18  1  0
  4 19  1  0
  6 20  1  0
  6 21  1  0
  7 22  1  0
  8 23  1  0
  9 24  1  0
  9 25  1  0
 11 26  1  0
 12 27  1  0
M  CHG  1   2   1
M  END
>  <model_server_result.job_id>  (1) 
w6_DvR5KbGp6wprDgw_Cps

>  <model_server_result.datetime_utc>  (1) 
2021-02-11 18:50:35

>  <model_server_result.server_version>  (1) 
0.9.6

>  <model_server_result.query_name>  (1) 
ligand

>  <model_server_result.source_id>  (1) 
pdb-bcif

>  <model_server_result.entry_id>  (1) 
1uw6

>  <model_server_params.name>  (1) 
atom_site

>  <model_server_params.value>  (1) 
{"label_asym_id":"U","auth_seq_id":1208}

>  <model_server_stats.io_time_ms>  (1) 
7

>  <model_server_stats.parse_time_ms>  (1) 
32

>  <model_server_stats.create_model_time_ms>  (1) 
40

>  <model_server_stats.query_time_ms>  (1) 
190

>  <model_server_stats.encode_time_ms>  (1) 
0

>  <model_server_stats.element_count>  (1) 
12

>  <ScrubInfo>  (1) 
{"isomerGroup": 0, "isomerId": 0, "confId": 0, "nr_conformers:": 1, "nr_isomers:": 1}

$$$$
